<?xml version="1.0" encoding="UTF-8"?>

<!-- generated on 2025-10-02 21:07:28 by Eclipse SUMO netedit Version 1.24.0
<neteditConfiguration xmlns:xsi="http://www.w3.org/2001/XMLSchema-instance" xsi:noNamespaceSchemaLocation="http://sumo.dlr.de/xsd/neteditConfiguration.xsd">

    <input>
        <sumo-net-file value="C:\Documents\Projects\Senior-Project\SUMO\Rev-2\map.net.xml"/>
    </input>

    <output>
        <output-file value="C:\Documents\Projects\Senior-Project\SUMO\Rev-2\map.net.xml"/>
    </output>

    <processing>
        <geometry.min-radius.fix.railways value="false"/>
        <geometry.avoid-overlap value="false"/>
        <geometry.max-grade.fix value="false"/>
        <offset.disable-normalization value="true"/>
        <lefthand value="0"/>
    </processing>

    <junctions>
        <no-turnarounds value="true"/>
        <junctions.corner-detail value="5"/>
        <junctions.limit-turn-speed value="5.50"/>
        <rectangular-lane-cut value="0"/>
    </junctions>

    <pedestrian>
        <walkingareas value="0"/>
    </pedestrian>

</neteditConfiguration>
-->

<net version="1.20" junctionCornerDetail="5" limitTurnSpeed="5.50" avoidOverlap="0" xmlns:xsi="http://www.w3.org/2001/XMLSchema-instance" xsi:noNamespaceSchemaLocation="http://sumo.dlr.de/xsd/net_file.xsd">

    <location netOffset="-658064.50,-4170599.18" convBoundary="0.00,0.00,4803.41,5169.79" origBoundary="-97.207615,37.668415,-97.153042,37.715443" projParameter="+proj=utm +zone=14 +ellps=WGS84 +datum=WGS84 +units=m +no_defs"/>

    <type id="highway.footway" priority="1" numLanes="1" speed="2.78" allow="pedestrian" oneway="1" width="2.00"/>
    <type id="highway.motorway" priority="14" numLanes="2" speed="39.44" allow="private emergency authority army vip passenger hov taxi bus coach delivery truck trailer motorcycle evehicle custom1 custom2" oneway="1"/>
    <type id="highway.motorway_link" priority="9" numLanes="1" speed="22.22" allow="private emergency authority army vip passenger hov taxi bus coach delivery truck trailer motorcycle evehicle custom1 custom2" oneway="1"/>
    <type id="highway.residential" priority="3" numLanes="1" speed="13.89" disallow="tram rail_urban rail rail_electric rail_fast ship container cable_car subway aircraft wheelchair scooter drone" oneway="0"/>
    <type id="highway.service" priority="1" numLanes="1" speed="5.56" allow="pedestrian delivery bicycle" oneway="0"/>
    <type id="highway.tertiary" priority="10" numLanes="1" speed="22.22" disallow="tram rail_urban rail rail_electric rail_fast ship container cable_car subway aircraft wheelchair scooter drone" oneway="0"/>
    <type id="highway.trunk" priority="13" numLanes="2" speed="27.78" disallow="pedestrian bicycle tram rail_urban rail rail_electric rail_fast ship container cable_car subway aircraft wheelchair scooter drone" oneway="0"/>

    <edge id=":10578799100_0" function="internal">
        <lane id=":10578799100_0_0" index="0" allow="private emergency authority army vip passenger hov taxi bus coach delivery truck trailer motorcycle evehicle custom1 custom2" speed="26.82" length="0.10" shape="1919.78,1178.55 1919.78,1178.55"/>
        <lane id=":10578799100_0_1" index="1" allow="private emergency authority army vip passenger hov taxi bus coach delivery truck trailer motorcycle evehicle custom1 custom2" speed="26.82" length="0.10" shape="1919.69,1181.75 1919.69,1181.75"/>
        <lane id=":10578799100_0_2" index="2" allow="private emergency authority army vip passenger hov taxi bus coach delivery truck trailer motorcycle evehicle custom1 custom2" speed="26.82" length="0.10" shape="1919.60,1184.95 1919.60,1184.95"/>
    </edge>
    <edge id=":122129404_0" function="internal">
        <lane id=":122129404_0_0" index="0" disallow="tram rail_urban rail rail_electric rail_fast ship container cable_car subway aircraft wheelchair scooter drone" speed="13.89" length="14.63" shape="3442.79,1194.26 3428.17,1193.94"/>
    </edge>
    <edge id=":122129404_1" function="internal">
        <lane id=":122129404_1_0" index="0" disallow="tram rail_urban rail rail_electric rail_fast ship container cable_car subway aircraft wheelchair scooter drone" speed="7.61" length="4.37" shape="3442.79,1194.26 3438.49,1193.54"/>
    </edge>
    <edge id=":122129404_2" function="internal">
        <lane id=":122129404_2_0" index="0" disallow="tram rail_urban rail rail_electric rail_fast ship container cable_car subway aircraft wheelchair scooter drone" speed="3.65" length="1.44" shape="3442.79,1194.26 3441.61,1193.43"/>
    </edge>
    <edge id=":122129404_9" function="internal">
        <lane id=":122129404_9_0" index="0" disallow="tram rail_urban rail rail_electric rail_fast ship container cable_car subway aircraft wheelchair scooter drone" speed="7.61" length="10.93" shape="3438.49,1193.54 3435.82,1191.63 3434.80,1188.51 3435.41,1184.19"/>
    </edge>
    <edge id=":122129404_10" function="internal">
        <lane id=":122129404_10_0" index="0" disallow="tram rail_urban rail rail_electric rail_fast ship container cable_car subway aircraft wheelchair scooter drone" speed="3.65" length="3.23" shape="3441.61,1193.43 3441.23,1192.62 3441.65,1191.83 3442.86,1191.06"/>
    </edge>
    <edge id=":122129404_3" function="internal">
        <lane id=":122129404_3_0" index="0" disallow="tram rail_urban rail rail_electric rail_fast ship container cable_car subway aircraft wheelchair scooter drone" speed="6.01" length="9.08" shape="3438.48,1185.08 3438.12,1187.65 3438.73,1189.50 3440.31,1190.64 3442.86,1191.06"/>
    </edge>
    <edge id=":122129404_4" function="internal">
        <lane id=":122129404_4_0" index="0" disallow="tram rail_urban rail rail_electric rail_fast ship container cable_car subway aircraft wheelchair scooter drone" speed="9.04" length="14.74" shape="3438.48,1185.08 3436.85,1189.02 3434.59,1191.81 3431.70,1193.45 3428.17,1193.94"/>
    </edge>
    <edge id=":122129404_5" function="internal">
        <lane id=":122129404_5_0" index="0" disallow="tram rail_urban rail rail_electric rail_fast ship container cable_car subway aircraft wheelchair scooter drone" speed="3.65" length="4.67" shape="3438.48,1185.08 3437.38,1186.01 3436.50,1186.17 3435.84,1185.56 3435.41,1184.19"/>
    </edge>
    <edge id=":122129404_6" function="internal">
        <lane id=":122129404_6_0" index="0" disallow="tram rail_urban rail rail_electric rail_fast ship container cable_car subway aircraft wheelchair scooter drone" speed="7.72" length="10.51" shape="3428.24,1190.74 3430.65,1190.37 3432.65,1189.16 3434.23,1187.10 3435.41,1184.19"/>
    </edge>
    <edge id=":122129404_7" function="internal">
        <lane id=":122129404_7_0" index="0" disallow="tram rail_urban rail rail_electric rail_fast ship container cable_car subway aircraft wheelchair scooter drone" speed="13.89" length="14.63" shape="3428.24,1190.74 3442.86,1191.06"/>
    </edge>
    <edge id=":122129404_8" function="internal">
        <lane id=":122129404_8_0" index="0" disallow="tram rail_urban rail rail_electric rail_fast ship container cable_car subway aircraft wheelchair scooter drone" speed="3.65" length="1.44" shape="3428.24,1190.74 3429.42,1191.57"/>
    </edge>
    <edge id=":122129404_11" function="internal">
        <lane id=":122129404_11_0" index="0" disallow="tram rail_urban rail rail_electric rail_fast ship container cable_car subway aircraft wheelchair scooter drone" speed="3.65" length="3.23" shape="3429.42,1191.57 3429.81,1192.37 3429.39,1193.17 3428.17,1193.94"/>
    </edge>
    <edge id=":122129430_0" function="internal">
        <lane id=":122129430_0_0" index="0" disallow="tram rail_urban rail rail_electric rail_fast ship container cable_car subway aircraft wheelchair scooter drone" speed="13.89" length="14.61" shape="3415.13,1097.22 3408.59,1084.16"/>
    </edge>
    <edge id=":122129430_1" function="internal">
        <lane id=":122129430_1_0" index="0" disallow="tram rail_urban rail rail_electric rail_fast ship container cable_car subway aircraft wheelchair scooter drone" speed="7.79" length="4.31" shape="3415.13,1097.22 3413.77,1093.35 3413.79,1093.14"/>
    </edge>
    <edge id=":122129430_2" function="internal">
        <lane id=":122129430_2_0" index="0" disallow="tram rail_urban rail rail_electric rail_fast ship container cable_car subway aircraft wheelchair scooter drone" speed="3.65" length="1.44" shape="3415.13,1097.22 3415.29,1095.79"/>
    </edge>
    <edge id=":122129430_9" function="internal">
        <lane id=":122129430_9_0" index="0" disallow="tram rail_urban rail rail_electric rail_fast ship container cable_car subway aircraft wheelchair scooter drone" speed="7.79" length="10.38" shape="3413.79,1093.14 3414.07,1090.12 3416.01,1087.52 3419.61,1085.56"/>
    </edge>
    <edge id=":122129430_10" function="internal">
        <lane id=":122129430_10_0" index="0" disallow="tram rail_urban rail rail_electric rail_fast ship container cable_car subway aircraft wheelchair scooter drone" speed="3.65" length="3.23" shape="3415.29,1095.79 3415.81,1095.06 3416.71,1095.05 3417.97,1095.74"/>
    </edge>
    <edge id=":122129430_3" function="internal">
        <lane id=":122129430_3_0" index="0" disallow="tram rail_urban rail rail_electric rail_fast ship container cable_car subway aircraft wheelchair scooter drone" speed="6.25" length="9.05" shape="3420.73,1088.56 3418.51,1089.77 3417.31,1091.37 3417.13,1093.36 3417.97,1095.74"/>
    </edge>
    <edge id=":122129430_4" function="internal">
        <lane id=":122129430_4_0" index="0" disallow="tram rail_urban rail rail_electric rail_fast ship container cable_car subway aircraft wheelchair scooter drone" speed="8.34" length="14.44" shape="3420.73,1088.56 3416.77,1089.47 3413.43,1089.04 3410.71,1087.27 3408.59,1084.16"/>
    </edge>
    <edge id=":122129430_5" function="internal">
        <lane id=":122129430_5_0" index="0" disallow="tram rail_urban rail rail_electric rail_fast ship container cable_car subway aircraft wheelchair scooter drone" speed="3.65" length="4.67" shape="3420.73,1088.56 3419.32,1088.23 3418.67,1087.62 3418.77,1086.73 3419.61,1085.56"/>
    </edge>
    <edge id=":122129430_6" function="internal">
        <lane id=":122129430_6_0" index="0" disallow="tram rail_urban rail rail_electric rail_fast ship container cable_car subway aircraft wheelchair scooter drone" speed="6.91" length="9.61" shape="3411.48,1082.78 3412.87,1084.80 3414.69,1085.94 3416.94,1086.19 3419.61,1085.56"/>
    </edge>
    <edge id=":122129430_7" function="internal">
        <lane id=":122129430_7_0" index="0" disallow="tram rail_urban rail rail_electric rail_fast ship container cable_car subway aircraft wheelchair scooter drone" speed="13.89" length="14.49" shape="3411.48,1082.78 3417.97,1095.74"/>
    </edge>
    <edge id=":122129430_8" function="internal">
        <lane id=":122129430_8_0" index="0" disallow="tram rail_urban rail rail_electric rail_fast ship container cable_car subway aircraft wheelchair scooter drone" speed="3.65" length="1.44" shape="3411.48,1082.78 3411.28,1084.21"/>
    </edge>
    <edge id=":122129430_11" function="internal">
        <lane id=":122129430_11_0" index="0" disallow="tram rail_urban rail rail_electric rail_fast ship container cable_car subway aircraft wheelchair scooter drone" speed="3.65" length="3.23" shape="3411.28,1084.21 3410.73,1084.91 3409.83,1084.90 3408.59,1084.16"/>
    </edge>
    <edge id=":122129442_0" function="internal">
        <lane id=":122129442_0_0" index="0" disallow="tram rail_urban rail rail_electric rail_fast ship container cable_car subway aircraft wheelchair scooter drone" speed="6.18" length="9.05" shape="3378.33,1025.48 3376.85,1023.42 3375.12,1022.45 3373.14,1022.57 3370.91,1023.79"/>
    </edge>
    <edge id=":122129442_1" function="internal">
        <lane id=":122129442_1_0" index="0" disallow="tram rail_urban rail rail_electric rail_fast ship container cable_car subway aircraft wheelchair scooter drone" speed="13.89" length="14.09" shape="3378.33,1025.48 3376.75,1022.24 3375.45,1019.05 3374.45,1015.77 3373.76,1012.23"/>
    </edge>
    <edge id=":122129442_2" function="internal">
        <lane id=":122129442_2_0" index="0" disallow="tram rail_urban rail rail_electric rail_fast ship container cable_car subway aircraft wheelchair scooter drone" speed="3.65" length="1.44" shape="3378.33,1025.48 3378.49,1024.05"/>
    </edge>
    <edge id=":122129442_9" function="internal">
        <lane id=":122129442_9_0" index="0" disallow="tram rail_urban rail rail_electric rail_fast ship container cable_car subway aircraft wheelchair scooter drone" speed="3.65" length="3.23" shape="3378.49,1024.05 3379.02,1023.32 3379.91,1023.31 3381.17,1024.01"/>
    </edge>
    <edge id=":122129442_3" function="internal">
        <lane id=":122129442_3_0" index="0" disallow="tram rail_urban rail rail_electric rail_fast ship container cable_car subway aircraft wheelchair scooter drone" speed="13.89" length="13.01" shape="3376.93,1011.78 3377.56,1015.16 3378.45,1018.09 3379.64,1020.92 3381.17,1024.01"/>
    </edge>
    <edge id=":122129442_4" function="internal">
        <lane id=":122129442_4_0" index="0" disallow="tram rail_urban rail rail_electric rail_fast ship container cable_car subway aircraft wheelchair scooter drone" speed="10.04" length="3.29" shape="3376.93,1011.78 3376.91,1015.07"/>
    </edge>
    <edge id=":122129442_5" function="internal">
        <lane id=":122129442_5_0" index="0" disallow="tram rail_urban rail rail_electric rail_fast ship container cable_car subway aircraft wheelchair scooter drone" speed="3.65" length="1.44" shape="3376.93,1011.78 3376.31,1013.08"/>
    </edge>
    <edge id=":122129442_10" function="internal">
        <lane id=":122129442_10_0" index="0" disallow="tram rail_urban rail rail_electric rail_fast ship container cable_car subway aircraft wheelchair scooter drone" speed="10.04" length="10.83" shape="3376.91,1015.07 3375.90,1018.17 3373.90,1021.08 3370.91,1023.79"/>
    </edge>
    <edge id=":122129442_11" function="internal">
        <lane id=":122129442_11_0" index="0" disallow="tram rail_urban rail rail_electric rail_fast ship container cable_car subway aircraft wheelchair scooter drone" speed="3.65" length="3.23" shape="3376.31,1013.08 3375.57,1013.59 3374.72,1013.31 3373.76,1012.23"/>
    </edge>
    <edge id=":122129442_6" function="internal">
        <lane id=":122129442_6_0" index="0" disallow="tram rail_urban rail rail_electric rail_fast ship container cable_car subway aircraft wheelchair scooter drone" speed="8.80" length="10.70" shape="3368.99,1021.23 3371.34,1019.13 3372.91,1016.93 3373.72,1014.63 3373.76,1012.23"/>
    </edge>
    <edge id=":122129442_7" function="internal">
        <lane id=":122129442_7_0" index="0" disallow="tram rail_urban rail rail_electric rail_fast ship container cable_car subway aircraft wheelchair scooter drone" speed="7.73" length="14.86" shape="3368.99,1021.23 3372.65,1019.23 3375.90,1019.02 3378.74,1020.62 3381.17,1024.01"/>
    </edge>
    <edge id=":122129442_8" function="internal">
        <lane id=":122129442_8_0" index="0" disallow="tram rail_urban rail rail_electric rail_fast ship container cable_car subway aircraft wheelchair scooter drone" speed="3.65" length="4.67" shape="3368.99,1021.23 3370.43,1021.15 3371.23,1021.55 3371.39,1022.43 3370.91,1023.79"/>
    </edge>
    <edge id=":122133940_0" function="internal">
        <lane id=":122133940_0_0" index="0" disallow="tram rail_urban rail rail_electric rail_fast ship container cable_car subway aircraft wheelchair scooter drone" speed="3.65" length="4.67" shape="3174.18,2394.08 3173.35,2395.26 3172.54,2395.64 3171.75,2395.22 3170.98,2394.00"/>
    </edge>
    <edge id=":122146616_0" function="internal">
        <lane id=":122146616_0_0" index="0" disallow="tram rail_urban rail rail_electric rail_fast ship container cable_car subway aircraft wheelchair scooter drone" speed="6.43" length="9.04" shape="3198.49,1527.51 3196.02,1527.72 3194.23,1528.68 3193.14,1530.40 3192.73,1532.86"/>
    </edge>
    <edge id=":122146616_1" function="internal">
        <lane id=":122146616_1_0" index="0" disallow="tram rail_urban rail rail_electric rail_fast ship container cable_car subway aircraft wheelchair scooter drone" speed="8.12" length="14.23" shape="3198.49,1527.51 3194.63,1526.75 3191.90,1524.97 3190.30,1522.19 3189.83,1518.39"/>
    </edge>
    <edge id=":122146616_2" function="internal">
        <lane id=":122146616_2_0" index="0" disallow="tram rail_urban rail rail_electric rail_fast ship container cable_car subway aircraft wheelchair scooter drone" speed="3.65" length="4.67" shape="3198.49,1527.51 3197.34,1526.65 3196.98,1525.83 3197.42,1525.05 3198.66,1524.32"/>
    </edge>
    <edge id=":122146616_3" function="internal">
        <lane id=":122146616_3_0" index="0" disallow="tram rail_urban rail rail_electric rail_fast ship container cable_car subway aircraft wheelchair scooter drone" speed="6.65" length="9.20" shape="3193.03,1518.46 3193.34,1520.90 3194.38,1522.68 3196.15,1523.83 3198.66,1524.32"/>
    </edge>
    <edge id=":122146616_4" function="internal">
        <lane id=":122146616_4_0" index="0" disallow="tram rail_urban rail rail_electric rail_fast ship container cable_car subway aircraft wheelchair scooter drone" speed="22.22" length="14.40" shape="3193.03,1518.46 3192.73,1532.86"/>
    </edge>
    <edge id=":122146616_5" function="internal">
        <lane id=":122146616_5_0" index="0" disallow="tram rail_urban rail rail_electric rail_fast ship container cable_car subway aircraft wheelchair scooter drone" speed="3.65" length="1.44" shape="3193.03,1518.46 3192.20,1519.64"/>
    </edge>
    <edge id=":122146616_9" function="internal">
        <lane id=":122146616_9_0" index="0" disallow="tram rail_urban rail rail_electric rail_fast ship container cable_car subway aircraft wheelchair scooter drone" speed="3.65" length="3.23" shape="3192.20,1519.64 3191.39,1520.02 3190.60,1519.61 3189.83,1518.39"/>
    </edge>
    <edge id=":122146616_6" function="internal">
        <lane id=":122146616_6_0" index="0" disallow="tram rail_urban rail rail_electric rail_fast ship container cable_car subway aircraft wheelchair scooter drone" speed="22.22" length="14.41" shape="3189.53,1532.80 3189.83,1518.39"/>
    </edge>
    <edge id=":122146616_7" function="internal">
        <lane id=":122146616_7_0" index="0" disallow="tram rail_urban rail rail_electric rail_fast ship container cable_car subway aircraft wheelchair scooter drone" speed="7.93" length="4.11" shape="3189.53,1532.80 3190.17,1528.89 3190.26,1528.76"/>
    </edge>
    <edge id=":122146616_8" function="internal">
        <lane id=":122146616_8_0" index="0" disallow="tram rail_urban rail rail_electric rail_fast ship container cable_car subway aircraft wheelchair scooter drone" speed="3.65" length="1.44" shape="3189.53,1532.80 3190.36,1531.61"/>
    </edge>
    <edge id=":122146616_10" function="internal">
        <lane id=":122146616_10_0" index="0" disallow="tram rail_urban rail rail_electric rail_fast ship container cable_car subway aircraft wheelchair scooter drone" speed="7.93" length="10.22" shape="3190.26,1528.76 3191.91,1526.18 3194.74,1524.65 3198.66,1524.32"/>
    </edge>
    <edge id=":122146616_11" function="internal">
        <lane id=":122146616_11_0" index="0" disallow="tram rail_urban rail rail_electric rail_fast ship container cable_car subway aircraft wheelchair scooter drone" speed="3.65" length="3.23" shape="3190.36,1531.61 3191.17,1531.23 3191.96,1531.64 3192.73,1532.86"/>
    </edge>
    <edge id=":122150534_0" function="internal">
        <lane id=":122150534_0_0" index="0" allow="private emergency authority army vip passenger hov taxi bus coach delivery truck trailer motorcycle evehicle custom1 custom2" speed="30.83" length="15.73" shape="1945.39,1439.43 1944.76,1442.84 1944.18,1446.13 1943.74,1449.97 1943.53,1455.02"/>
    </edge>
    <edge id=":122150534_1" function="internal">
        <lane id=":122150534_1_0" index="0" allow="private emergency authority army vip passenger hov taxi bus coach delivery truck trailer motorcycle evehicle custom1 custom2" speed="30.83" length="15.84" shape="1941.95,1439.24 1941.70,1442.70 1941.16,1446.02 1940.62,1449.89 1940.33,1454.98"/>
    </edge>
    <edge id=":122150609_0" function="internal">
        <lane id=":122150609_0_0" index="0" allow="private emergency authority army vip passenger hov taxi bus coach delivery truck trailer motorcycle evehicle custom1 custom2" speed="24.52" length="26.62" shape="2229.43,1209.96 2220.39,1210.18 2213.09,1210.96 2207.35,1211.90 2202.99,1212.61"/>
    </edge>
    <edge id=":122150609_1" function="internal">
        <lane id=":122150609_1_0" index="0" allow="private emergency authority army vip passenger hov taxi bus coach delivery truck trailer motorcycle evehicle custom1 custom2" speed="26.82" length="26.54" shape="2229.43,1209.96 2202.88,1208.80"/>
        <lane id=":122150609_1_1" index="1" allow="private emergency authority army vip passenger hov taxi bus coach delivery truck trailer motorcycle evehicle custom1 custom2" speed="26.82" length="26.54" shape="2229.49,1206.76 2202.98,1205.60"/>
        <lane id=":122150609_1_2" index="2" allow="private emergency authority army vip passenger hov taxi bus coach delivery truck trailer motorcycle evehicle custom1 custom2" speed="26.82" length="26.54" shape="2229.55,1203.56 2203.08,1202.40"/>
    </edge>
    <edge id=":122153356_0" function="internal">
        <lane id=":122153356_0_0" index="0" allow="private emergency authority army vip passenger hov taxi bus coach delivery truck trailer motorcycle evehicle custom1 custom2" speed="25.64" length="46.20" shape="1936.77,1929.17 1938.76,1975.33"/>
    </edge>
    <edge id=":122153356_1" function="internal">
        <lane id=":122153356_1_0" index="0" allow="private emergency authority army vip passenger hov taxi bus coach delivery truck trailer motorcycle evehicle custom1 custom2" speed="29.06" length="46.20" shape="1936.77,1929.17 1935.31,1975.38"/>
        <lane id=":122153356_1_1" index="1" allow="private emergency authority army vip passenger hov taxi bus coach delivery truck trailer motorcycle evehicle custom1 custom2" speed="29.06" length="46.20" shape="1933.57,1929.18 1932.11,1975.32"/>
    </edge>
    <edge id=":122153454_0" function="internal">
        <lane id=":122153454_0_0" index="0" allow="private emergency authority army vip passenger hov taxi bus coach delivery truck trailer motorcycle evehicle custom1 custom2" speed="27.88" length="33.01" shape="2678.23,2265.22 2670.97,2260.51 2662.49,2255.77 2654.76,2251.60 2649.73,2248.61"/>
    </edge>
    <edge id=":122153454_1" function="internal">
        <lane id=":122153454_1_0" index="0" allow="private emergency authority army vip passenger hov taxi bus coach delivery truck trailer motorcycle evehicle custom1 custom2" speed="33.53" length="33.05" shape="2678.23,2265.22 2651.52,2245.78"/>
        <lane id=":122153454_1_1" index="1" allow="private emergency authority army vip passenger hov taxi bus coach delivery truck trailer motorcycle evehicle custom1 custom2" speed="33.53" length="33.05" shape="2680.15,2262.65 2653.41,2243.19"/>
    </edge>
    <edge id=":122156634_0" function="internal">
        <lane id=":122156634_0_0" index="0" allow="private emergency authority army vip passenger hov taxi bus coach delivery truck trailer motorcycle evehicle custom1 custom2" speed="25.64" length="33.88" shape="1907.00,1957.97 1907.90,1952.04 1909.13,1943.05 1910.27,1933.11 1910.86,1924.33"/>
    </edge>
    <edge id=":122156634_1" function="internal">
        <lane id=":122156634_1_0" index="0" allow="private emergency authority army vip passenger hov taxi bus coach delivery truck trailer motorcycle evehicle custom1 custom2" speed="29.06" length="33.87" shape="1910.68,1958.22 1910.86,1924.33"/>
        <lane id=":122156634_1_1" index="1" allow="private emergency authority army vip passenger hov taxi bus coach delivery truck trailer motorcycle evehicle custom1 custom2" speed="29.06" length="33.87" shape="1913.88,1958.25 1914.06,1924.40"/>
    </edge>
    <edge id=":122156644_0" function="internal">
        <lane id=":122156644_0_0" index="0" allow="private emergency authority army vip passenger hov taxi bus coach delivery truck trailer motorcycle evehicle custom1 custom2" speed="27.88" length="47.54" shape="1924.53,1679.26 1961.83,1708.72"/>
    </edge>
    <edge id=":122156644_1" function="internal">
        <lane id=":122156644_1_0" index="0" allow="private emergency authority army vip passenger hov taxi bus coach delivery truck trailer motorcycle evehicle custom1 custom2" speed="33.53" length="47.53" shape="1924.53,1679.26 1959.58,1711.38"/>
        <lane id=":122156644_1_1" index="1" allow="private emergency authority army vip passenger hov taxi bus coach delivery truck trailer motorcycle evehicle custom1 custom2" speed="33.53" length="47.53" shape="1922.41,1681.65 1957.44,1713.76"/>
    </edge>
    <edge id=":122156900_0" function="internal">
        <lane id=":122156900_0_0" index="0" allow="private emergency authority army vip passenger hov taxi bus coach delivery truck trailer motorcycle evehicle custom1 custom2" speed="27.88" length="44.68" shape="2184.42,1909.90 2149.97,1881.44"/>
    </edge>
    <edge id=":122156900_1" function="internal">
        <lane id=":122156900_1_0" index="0" allow="private emergency authority army vip passenger hov taxi bus coach delivery truck trailer motorcycle evehicle custom1 custom2" speed="33.53" length="44.68" shape="2186.57,1907.12 2149.97,1881.44"/>
        <lane id=":122156900_1_1" index="1" allow="private emergency authority army vip passenger hov taxi bus coach delivery truck trailer motorcycle evehicle custom1 custom2" speed="33.53" length="44.68" shape="2188.45,1904.53 2151.91,1878.89"/>
    </edge>
    <edge id=":122158971_0" function="internal">
        <lane id=":122158971_0_0" index="0" allow="private emergency authority army vip passenger hov taxi bus coach delivery truck trailer motorcycle evehicle custom1 custom2" speed="24.52" length="10.80" shape="2388.19,1186.20 2391.17,1186.84 2393.33,1187.35 2395.58,1187.72 2398.83,1187.93"/>
    </edge>
    <edge id=":122158971_1" function="internal">
        <lane id=":122158971_1_0" index="0" allow="private emergency authority army vip passenger hov taxi bus coach delivery truck trailer motorcycle evehicle custom1 custom2" speed="26.82" length="10.87" shape="2387.97,1189.65 2391.18,1189.90 2393.35,1190.36 2395.52,1190.84 2398.73,1191.13"/>
        <lane id=":122158971_1_1" index="1" allow="private emergency authority army vip passenger hov taxi bus coach delivery truck trailer motorcycle evehicle custom1 custom2" speed="26.82" length="10.87" shape="2387.90,1192.84 2391.10,1193.10 2393.27,1193.56 2395.44,1194.04 2398.64,1194.32"/>
    </edge>
    <edge id=":122159118_0" function="internal">
        <lane id=":122159118_0_0" index="0" allow="private emergency authority army vip passenger hov taxi bus coach delivery truck trailer motorcycle evehicle custom1 custom2" speed="24.52" length="14.06" shape="2003.13,1180.94 2007.56,1180.84 2010.85,1180.37 2013.74,1179.66 2016.98,1178.86"/>
    </edge>
    <edge id=":122159118_1" function="internal">
        <lane id=":122159118_1_0" index="0" allow="private emergency authority army vip passenger hov taxi bus coach delivery truck trailer motorcycle evehicle custom1 custom2" speed="26.82" length="14.15" shape="2003.04,1184.13 2007.21,1183.93 2010.04,1183.31 2012.86,1182.67 2017.03,1182.44"/>
        <lane id=":122159118_1_1" index="1" allow="private emergency authority army vip passenger hov taxi bus coach delivery truck trailer motorcycle evehicle custom1 custom2" speed="26.82" length="14.15" shape="2002.95,1187.33 2007.13,1187.13 2009.96,1186.51 2012.79,1185.87 2016.97,1185.64"/>
    </edge>
    <edge id=":122160763_0" function="internal">
        <lane id=":122160763_0_0" index="0" allow="private emergency authority army vip passenger hov taxi bus coach delivery truck trailer motorcycle evehicle custom1 custom2" speed="27.88" length="38.75" shape="2318.85,1977.59 2348.59,2002.44"/>
    </edge>
    <edge id=":122160763_1" function="internal">
        <lane id=":122160763_1_0" index="0" allow="private emergency authority army vip passenger hov taxi bus coach delivery truck trailer motorcycle evehicle custom1 custom2" speed="33.53" length="38.75" shape="2316.67,1980.40 2348.59,2002.44"/>
        <lane id=":122160763_1_1" index="1" allow="private emergency authority army vip passenger hov taxi bus coach delivery truck trailer motorcycle evehicle custom1 custom2" speed="33.53" length="38.75" shape="2314.83,1983.01 2346.69,2005.01"/>
    </edge>
    <edge id=":122160866_0" function="internal">
        <lane id=":122160866_0_0" index="0" allow="private emergency authority army vip passenger hov taxi bus coach delivery truck trailer motorcycle evehicle custom1 custom2" speed="22.22" length="0.24" shape="2369.46,1990.85 2369.60,1990.65"/>
    </edge>
    <edge id=":122160875_0" function="internal">
        <lane id=":122160875_0_0" index="0" allow="private emergency authority army vip passenger hov taxi bus coach delivery truck trailer motorcycle evehicle custom1 custom2" speed="22.22" length="0.23" shape="2332.55,2042.19 2332.69,2042.00"/>
    </edge>
    <edge id=":122165477_0" function="internal">
        <lane id=":122165477_0_0" index="0" allow="private emergency authority army vip passenger hov taxi bus coach delivery truck trailer motorcycle evehicle custom1 custom2" speed="30.83" length="16.56" shape="1921.57,1463.70 1921.50,1458.34 1921.10,1454.23 1920.55,1450.75 1920.03,1447.24"/>
    </edge>
    <edge id=":122165477_1" function="internal">