<?xml version="1.0" encoding="UTF-8"?>

<!-- generated on 2026-04-04 23:31:17 by Eclipse SUMO duarouter Version 1.24.0
<duarouterConfiguration xmlns:xsi="http://www.w3.org/2001/XMLSchema-instance" xsi:noNamespaceSchemaLocation="http://sumo.dlr.de/xsd/duarouterConfiguration.xsd">

    <input>
        <net-file value="C:\Senior-Project\SUMO\Rev-5\Town03.net.xml"/>
        <additional-files value="C:\Senior-Project\SUMO\Rev-5\vtypes.xml"/>
        <route-files value="C:\Senior-Project\SUMO\Rev-5\custom.trips.xml"/>
    </input>

    <output>
        <output-file value="C:\Senior-Project\SUMO\Rev-5\custom.rou.xml"/>
    </output>

</duarouterConfiguration>
-->

<routes xmlns:xsi="http://www.w3.org/2001/XMLSchema-instance" xsi:noNamespaceSchemaLocation="http://sumo.dlr.de/xsd/routes_file.xsd">
    <vType id="C800682_130" length="5.00" maxSpeed="33.00" vClass="passenger" emissionClass="HBEFA3/PC_G_EU4">
        <param key="customCO2" value="287.6041284802198"/>
    </vType>
    <vehicle id="0" type="C800682_130" depart="0.00">
        <route edges="22 21 62 61 -13 -14 -10"/>
    </vehicle>
    <vType id="L5BUU1783_767" length="5.00" maxSpeed="33.00" vClass="passenger" emissionClass="HBEFA3/PC_G_EU4">
        <param key="customCO2" value="244.1996823142857"/>
    </vType>
    <vehicle id="1" type="L5BUU1783_767" depart="1.00">
        <route edges="-44 21 62 61 -13 -14 -10 -11 -36"/>
    </vehicle>
    <vType id="QF2F4AU02A1_781" length="5.00" maxSpeed="33.00" vClass="passenger" emissionClass="HBEFA3/PC_G_EU4">
        <param key="customCO2" value="238.1568937970588"/>
    </vType>
    <vehicle id="2" type="QF2F4AU02A1_781" depart="2.00">
        <route edges="4 3 2 29"/>
    </vehicle>
    <vType id="AF61-6.2-J-926_473" length="5.00" maxSpeed="33.00" vClass="passenger" emissionClass="HBEFA3/PC_G_EU4">
        <param key="customCO2" value="548.71698935"/>
    </vType>
    <vehicle id="3" type="AF61-6.2-J-926_473" depart="3.00">
        <route edges="68 67 66 65 -0 -1 29 -19"/>
    </vehicle>
    <vType id="veh_4ECPY31-009_911" length="5.00" maxSpeed="33.00" vClass="passenger" emissionClass="HBEFA3/PC_G_EU4">
        <param key="customCO2" value="245.14611336630435"/>
    </vType>
    <vehicle id="4" type="veh_4ECPY31-009_911" depart="4.00">
        <route edges="-68 -69 -24 30 -10 -11"/>
    </vehicle>
    <vType id="BY61021_74" length="5.00" maxSpeed="33.00" vClass="passenger" emissionClass="HBEFA3/PC_G_EU4">
        <param key="customCO2" value="535.2170800227273"/>
    </vType>
    <vehicle id="5" type="BY61021_74" depart="5.00">
        <route edges="-36 -38 -12 -13 16 -30 -76 -78#0 -78#1 -79"/>
    </vehicle>
    <vType id="F099010_91" length="5.00" maxSpeed="33.00" vClass="passenger" emissionClass="HBEFA3/PC_G_EU4">
        <param key="customCO2" value="213.9175"/>
    </vType>
    <vehicle id="6" type="F099010_91" depart="6.00">
        <route edges="-10 -11 -36 -38 -12 -13 16 -30 -31"/>
    </vehicle>
    <vType id="L2FFF2598_430" length="5.00" maxSpeed="33.00" vClass="passenger" emissionClass="HBEFA3/PC_G_EU4">
        <param key="customCO2" value="216.45219046842104"/>
    </vType>
    <vehicle id="7" type="L2FFF2598_430" depart="7.00">
        <route edges="23 22 21 20 2 1 0"/>
    </vehicle>
    <vType id="veh_306ANP5010_1275" length="5.00" maxSpeed="33.00" vClass="passenger" emissionClass="HBEFA3/PC_G_EU4">
        <param key="customCO2" value="324.9325"/>
    </vType>
    <vehicle id="8" type="veh_306ANP5010_1275" depart="8.00">
        <route edges="-36 -38 -12 -13 -14 -10 -11 15 -28 18"/>
    </vehicle>
    <vType id="MD3N8GF73A1_624" length="5.00" maxSpeed="33.00" vClass="passenger" emissionClass="HBEFA3/PC_G_EU4">
        <param key="customCO2" value="208.555770975"/>
    </vType>
    <vehicle id="9" type="MD3N8GF73A1_624" depart="9.00">
        <route edges="50#1 50#0 49 47 66 65 -0"/>
    </vehicle>
    <vType id="AWE502_1166" length="5.00" maxSpeed="33.00" vClass="passenger" emissionClass="HBEFA3/PC_G_EU4">
        <param key="customCO2" value="241.71428571428572"/>
    </vType>
    <vehicle id="10" type="AWE502_1166" depart="10.00">
        <route edges="50#1 50#0 49 80 79 78#1 78#0 77 30"/>
    </vehicle>
    <vType id="TF96000_1097" length="5.00" maxSpeed="33.00" vClass="passenger" emissionClass="HBEFA3/PC_G_EU4">
        <param key="customCO2" value="233.295"/>
    </vType>
    <vehicle id="11" type="TF96000_1097" depart="11.00">
        <route edges="-52 -81 -60 52 51 50#1 50#0 49 47 66 65 -0 -1 29 28 -25"/>
    </vehicle>
    <vType id="K478507_100" length="5.00" maxSpeed="33.00" vClass="passenger" emissionClass="HBEFA3/PC_G_EU4">
        <param key="customCO2" value="211.3125"/>
    </vType>
    <vehicle id="12" type="K478507_100" depart="12.00">
        <route edges="78#0 77 30 -10 46 8 7 6 -66 -47 -48 -50#0 -50#1 -51 -52"/>
    </vehicle>
    <vType id="EL510048_438" length="5.00" maxSpeed="33.00" vClass="passenger" emissionClass="HBEFA3/PC_G_EU4">
        <param key="customCO2" value="162.15452654999999"/>
    </vType>
    <vehicle id="13" type="EL510048_438" depart="13.00">
        <route edges="-19 2 1 -41 -18 -29 -2"/>
    </vehicle>
    <vType id="SRE418_1120" length="5.00" maxSpeed="33.00" vClass="passenger" emissionClass="HBEFA3/PC_G_EU4">
        <param key="customCO2" value="352.5"/>
    </vType>
    <vehicle id="14" type="SRE418_1120" depart="14.00">
        <route edges="61 -13 16 -30 24 4 3 19"/>
    </vehicle>
    <vType id="FL200133_492" length="5.00" maxSpeed="33.00" vClass="passenger" emissionClass="HBEFA3/PC_G_EU4">
        <param key="customCO2" value="193.70408394999998"/>
    </vType>
    <vehicle id="15" type="FL200133_492" depart="15.00">
        <route edges="50#1 50#0 49 80 79 78#1 78#0 77 24 4"/>
    </vehicle>
    <vType id="C218E55DETC-Z2023-3_977" length="5.00" maxSpeed="33.00" vClass="passenger" emissionClass="HBEFA3/PC_G_EU4">
        <param key="customCO2" value="375.15000000000003"/>
    </vType>
    <vehicle id="16" type="C218E55DETC-Z2023-3_977" depart="16.00">
        <route edges="-81 -60 52 51 50#1 50#0 49 80 79"/>
    </vehicle>
    <vType id="W212DE30TC-Z0016_991" length="5.00" maxSpeed="33.00" vClass="passenger" emissionClass="HBEFA3/PC_G_EU4">
        <param key="customCO2" value="295.89166666666665"/>
    </vType>
    <vehicle id="17" type="W212DE30TC-Z0016_991" depart="17.00">
        <route edges="-61 3 2 1"/>
    </vehicle>
    <vType id="EB11-CA52_924" length="5.00" maxSpeed="33.00" vClass="passenger" emissionClass="HBEFA3/PC_G_EU4">
        <param key="customCO2" value="248.53221238289476"/>
    </vType>
    <vehicle id="18" type="EB11-CA52_924" depart="18.00">
        <route edges="52 51 50#1 50#0 49 80 79 78#1 78#0 77 24 23 22 21 20"/>
    </vehicle>
    <vType id="veh_13-GE5A_837" length="5.00" maxSpeed="33.00" vClass="passenger" emissionClass="HBEFA3/PC_G_EU4">
        <param key="customCO2" value="300.6504110222222"/>
    </vType>
    <vehicle id="19" type="veh_13-GE5A_837" depart="19.00">
        <route edges="65 -0 -1 29 28 -25 -38 -12 -13 16"/>
    </vehicle>
    <vType id="L2FFF1237_431" length="5.00" maxSpeed="33.00" vClass="passenger" emissionClass="HBEFA3/PC_G_EU4">
        <param key="customCO2" value="221.21946285714284"/>
    </vType>
    <vehicle id="20" type="L2FFF1237_431" depart="20.00">
        <route edges="31 30 -10 -11 -36 -38 -12"/>
    </vehicle>
    <vType id="veh_6ECP5V31-007_908" length="5.00" maxSpeed="33.00" vClass="passenger" emissionClass="HBEFA3/PC_G_EU4">
        <param key="customCO2" value="197.20147865714284"/>
    </vType>
    <vehicle id="21" type="veh_6ECP5V31-007_908" depart="21.00">
        <route edges="-38 -12 -13 -14 -10 46 8 7 6 -66 -47"/>
    </vehicle>
    <vType id="veh_361_730_136_13_1384" length="5.00" maxSpeed="33.00" vClass="passenger" emissionClass="HBEFA3/PC_G_EU4">
        <param key="customCO2" value="171.3281165142857"/>
    </vType>
    <vehicle id="22" type="veh_361_730_136_13_1384" depart="22.00">
        <route edges="-18 28 -25 -38"/>
    </vehicle>
    <vehicle id="23" type="veh_361_730_136_13_1384" depart="23.00">
        <route edges="-2 -3 -44"/>
    </vehicle>
    <vType id="T891600_1092" length="5.00" maxSpeed="33.00" vClass="passenger" emissionClass="HBEFA3/PC_G_EU4">
        <param key="customCO2" value="236.52765706666665"/>
    </vType>
    <vehicle id="24" type="T891600_1092" depart="24.00">
        <route edges="22 21 62 61 -13 16 -30 -76 -78#0 -78#1 -79 -80 -48 -50#0 -50#1 -51 -52 -81 -60"/>
    </vehicle>
    <vType id="F099010_90" length="5.00" maxSpeed="33.00" vClass="passenger" emissionClass="HBEFA3/PC_G_EU4">
        <param key="customCO2" value="200.955"/>
    </vType>
    <vehicle id="25" type="F099010_90" depart="25.00">
        <route edges="-60 52 51 50#1 50#0 49 80 79 78#1 78#0 77 -31 -32"/>
    </vehicle>
    <vType id="veh_16-ZV1H_1341" length="5.00" maxSpeed="33.00" vClass="passenger" emissionClass="HBEFA3/PC_G_EU4">
        <param key="customCO2" value="134.91193983368422"/>
    </vType>
    <vehicle id="26" type="veh_16-ZV1H_1341" depart="26.00">
        <route edges="-43 -8 34 15 -28 -29 1 0 -65 -5 75"/>
    </vehicle>
    <vType id="GMB013_1154" length="5.00" maxSpeed="33.00" vClass="passenger" emissionClass="HBEFA3/PC_G_EU4">
        <param key="customCO2" value="241.3781717"/>
    </vType>
    <vehicle id="27" type="GMB013_1154" depart="27.00">
        <route edges="23 22 21 20 2"/>
    </vehicle>
    <vType id="EM100006_482" length="5.00" maxSpeed="33.00" vClass="passenger" emissionClass="HBEFA3/PC_G_EU4">
        <param key="customCO2" value="201.21736311724138"/>
    </vType>
    <vehicle id="28" type="EM100006_482" depart="28.00">
        <route edges="-29 -2 -3 -44 -22 -23 4"/>
    </vehicle>
    <vehicle id="29" type="K478507_100" depart="29.00">
        <route edges="-28 -29 1 -41 -18 28 -25 -61"/>
    </vehicle>
    <vType id="EC1A1A_565" length="5.00" maxSpeed="33.00" vClass="passenger" emissionClass="HBEFA3/PC_G_EU4">
        <param key="customCO2" value="202.67060934166668"/>
    </vType>
    <vehicle id="30" type="EC1A1A_565" depart="30.00">
        <route edges="8 7 6 -66 -47 80 79 78#1 78#0 77 24 23 22"/>
    </vehicle>
    <vType id="AKA00007_445" length="5.00" maxSpeed="33.00" vClass="passenger" emissionClass="HBEFA3/PC_G_EU4">
        <param key="customCO2" value="201.0435"/>
    </vType>
    <vehicle id="31" type="AKA00007_445" depart="31.00">
        <route edges="1 -41 -18 28 -25 -61 3"/>
    </vehicle>
    <vType id="WH97510_1095" length="5.00" maxSpeed="33.00" vClass="passenger" emissionClass="HBEFA3/PC_G_EU4">
        <param key="customCO2" value="231.52291666666667"/>
    </vType>
    <vehicle id="32" type="WH97510_1095" depart="32.00">
        <route edges="61 -13 16 -30 -76 -78#0 -78#1 -79 -80 47"/>
    </vehicle>
    <vType id="E6NA1A_566" length="5.00" maxSpeed="33.00" vClass="passenger" emissionClass="HBEFA3/PC_G_EU4">
        <param key="customCO2" value="217.15020105"/>
    </vType>
    <vehicle id="33" type="E6NA1A_566" depart="33.00">
        <route edges="-38 -12 -13 -14 -10 -11"/>
    </vehicle>
    <vType id="veh_201004_1408" length="5.00" maxSpeed="33.00" vClass="passenger" emissionClass="HBEFA3/PC_G_EU4">
        <param key="customCO2" value="332.6"/>
    </vType>
    <vehicle id="34" type="veh_201004_1408" depart="34.00">
        <route edges="-50#0 -50#1 -51 -52 -81 -60 52 51 50#1 50#0 49 80 79 78#1 78#0 77 30 -10 -11 15 -28 18 -42 -43"/>
    </vehicle>
    <vType id="VV98818_82" length="5.00" maxSpeed="33.00" vClass="passenger" emissionClass="HBEFA3/PC_G_EU4">
        <param key="customCO2" value="262.6366666666667"/>
    </vType>
    <vehicle id="35" type="VV98818_82" depart="35.00">
        <route edges="-32 -68 -69 4 3 2 1 0 -65 -5 75"/>
    </vehicle>
    <vType id="T739201_1078" length="5.00" maxSpeed="33.00" vClass="passenger" emissionClass="HBEFA3/PC_G_EU4">
        <param key="customCO2" value="206.085"/>
    </vType>
    <vehicle id="36" type="T739201_1078" depart="36.00">
        <route edges="66 65 -0 -1 29 28 -25 -38 -12 -13 16 -30 -76 -78#0 -78#1 -79 -80 -48 -50#0"/>
    </vehicle>
    <vType id="veh_16-ZV2H_1342" length="5.00" maxSpeed="33.00" vClass="passenger" emissionClass="HBEFA3/PC_G_EU4">
        <param key="customCO2" value="144.12954937368423"/>
    </vType>
    <vehicle id="37" type="veh_16-ZV2H_1342" depart="37.00">
        <route edges="24 4 3 2 1 0 -65"/>
    </vehicle>
    <vehicle id="38" type="L2FFF1237_431" depart="38.00">
        <route edges="7 6 -66 -47 80 79 78#1 78#0 77 30 -10 -11 15 -28 18 17 -74"/>
    </vehicle>
    <vehicle id="39" type="EL510048_438" depart="39.00">
        <route edges="-43 -8 34 15 -28 -29 1 -41"/>
    </vehicle>
    <vehicle id="40" type="K478507_100" depart="40.00">
        <route edges="15 -28 18 -42 -43"/>
    </vehicle>
    <vType id="ECBJ1C_595" length="5.00" maxSpeed="33.00" vClass="passenger" emissionClass="HBEFA3/PC_G_EU4">
        <param key="customCO2" value="150.61906249999998"/>
    </vType>
    <vehicle id="41" type="ECBJ1C_595" depart="41.00">
        <route edges="17 -74 -75 -7 -8 34 -36 -38 -12 -13 16 -30 24 69"/>
    </vehicle>
    <vehicle id="42" type="T891600_1092" depart="42.00">
        <route edges="-65 -5 -7 -8 34 -36"/>
    </vehicle>
    <vType id="A451E10-Z8010-1_1072" length="5.00" maxSpeed="33.00" vClass="passenger" emissionClass="HBEFA3/PC_G_EU4">
        <param key="customCO2" value="177.725"/>
    </vType>
    <vehicle id="43" type="A451E10-Z8010-1_1072" depart="43.00">
        <route edges="80 79 78#1 78#0 77 -31 -58 -69 -24 -76 -78#0 -78#1 -79"/>
    </vehicle>
    <vType id="EE1J1M_556" length="5.00" maxSpeed="33.00" vClass="passenger" emissionClass="HBEFA3/PC_G_EU4">
        <param key="customCO2" value="199.65799782741936"/>
    </vType>
    <vehicle id="44" type="EE1J1M_556" depart="44.00">
        <route edges="-19 -3 61 -13"/>
    </vehicle>
    <vType id="veh_270TT244_66" length="5.00" maxSpeed="33.00" vClass="passenger" emissionClass="HBEFA3/PC_G_EU4">
        <param key="customCO2" value="418.155"/>
    </vType>
    <vehicle id="45" type="veh_270TT244_66" depart="45.00">
        <route edges="-20 62 -44 21"/>
    </vehicle>
    <vType id="UB3R6AU13A1_791" length="5.00" maxSpeed="33.00" vClass="passenger" emissionClass="HBEFA3/PC_G_EU4">
        <param key="customCO2" value="208.87429230454546"/>
    </vType>
    <vehicle id="46" type="UB3R6AU13A1_791" depart="46.00">
        <route edges="49 80 79 78#1 78#0 77 -31 -32 -68"/>
    </vehicle>
    <vType id="TF96000_1089" length="5.00" maxSpeed="33.00" vClass="passenger" emissionClass="HBEFA3/PC_G_EU4">
        <param key="customCO2" value="236.905"/>
    </vType>
    <vehicle id="47" type="TF96000_1089" depart="47.00">
        <route edges="-14 -10 -11 15 -28 -29 1 -41 -18 28 -25 -61"/>
    </vehicle>
    <vType id="veh_16-GL3H_853" length="5.00" maxSpeed="33.00" vClass="passenger" emissionClass="HBEFA3/PC_G_EU4">
        <param key="customCO2" value="235.0317762076923"/>
    </vType>
    <vehicle id="48" type="veh_16-GL3H_853" depart="48.00">
        <route edges="80 79 78#1 78#0 77 -31 -58 -69 -24 -76 -78#0 -78#1 -79 -80"/>
    </vehicle>
    <vType id="E9YX1A_586" length="5.00" maxSpeed="33.00" vClass="passenger" emissionClass="HBEFA3/PC_G_EU4">
        <param key="customCO2" value="0.0"/>
    </vType>
    <vehicle id="49" type="E9YX1A_586" depart="49.00">
        <route edges="78#1 78#0 77 -31 -58 -69 -24 -76 -78#0 -78#1 -79 -80 47 66 65"/>
    </vehicle>
    <vType id="veh_14-ZE1A_1325" length="5.00" maxSpeed="33.00" vClass="passenger" emissionClass="HBEFA3/PC_G_EU4">
        <param key="customCO2" value="214.55562452580645"/>
    </vType>
    <vehicle id="50" type="veh_14-ZE1A_1325" depart="50.00">
        <route edges="-1 29 18 -42 -43 -8 34"/>
    </vehicle>
    <vType id="veh_14S41810_223" length="5.00" maxSpeed="33.00" vClass="passenger" emissionClass="HBEFA3/PC_G_EU4">
        <param key="customCO2" value="225.29999999999998"/>
    </vType>
    <vehicle id="51" type="veh_14S41810_223" depart="51.00">
        <route edges="29 28 -25 -38 -12 -13 16 -30 -76 -78#0 -78#1 -79 -80 -48 -50#0 -50#1 -51 -52 -81"/>
    </vehicle>
    <vType id="veh_366CNP5602_264" length="5.00" maxSpeed="33.00" vClass="passenger" emissionClass="HBEFA3/PC_G_EU4">
        <param key="customCO2" value="337.9432105263158"/>
    </vType>
    <vehicle id="52" type="veh_366CNP5602_264" depart="52.00">
        <route edges="-43 -8 34 -36 -38 -12 -13 16 -30 24 23 22"/>
    </vehicle>
    <vType id="EL100003_487" length="5.00" maxSpeed="33.00" vClass="passenger" emissionClass="HBEFA3/PC_G_EU4">
        <param key="customCO2" value="213.54475000000002"/>
    </vType>
    <vehicle id="53" type="EL100003_487" depart="53.00">
        <route edges="-20 62 61 -13 16 -30 -31 -58 -69"/>
    </vehicle>
    <vehicle id="54" type="veh_366CNP5602_264" depart="54.00">
        <route edges="-73 -17 41 0 -65 -66 -47 80 79 78#1 78#0"/>
    </vehicle>
    <vType id="TD1F0GU09A1_772" length="5.00" maxSpeed="33.00" vClass="passenger" emissionClass="HBEFA3/PC_G_EU4">
        <param key="customCO2" value="218.7999505"/>
    </vType>
    <vehicle id="55" type="TD1F0GU09A1_772" depart="55.00">
        <route edges="66 65 -0 -1 29 18 -42 -43"/>
    </vehicle>
    <vType id="EE1J3C_563" length="5.00" maxSpeed="33.00" vClass="passenger" emissionClass="HBEFA3/PC_G_EU4">
        <param key="customCO2" value="187.96273566363635"/>
    </vType>
    <vehicle id="56" type="EE1J3C_563" depart="56.00">
        <route edges="-78#1 -79 -80 47 66 65 -0 -1 -2 -3"/>
    </vehicle>
    <vType id="veh_16-GN3A_1363" length="5.00" maxSpeed="33.00" vClass="passenger" emissionClass="HBEFA3/PC_G_EU4">
        <param key="customCO2" value="334.0972884684211"/>
    </vType>
    <vehicle id="57" type="veh_16-GN3A_1363" depart="57.00">
        <route edges="7 6 -66 -47 -48 -50#0 -50#1 -51 -52 -81 -60 52 51 50#1 50#0 49 47 66"/>
    </vehicle>
    <vType id="FBF-RH15_1297" length="5.00" maxSpeed="33.00" vClass="passenger" emissionClass="HBEFA3/PC_G_EU4">
        <param key="customCO2" value="218.5610685"/>
    </vType>
    <vehicle id="58" type="FBF-RH15_1297" depart="58.00">
        <route edges="-48 -50#0 -50#1 -51 -52 -81 -60 52 51 50#1 50#0 49 80 79 78#1 78#0 77 24 23 22"/>
    </vehicle>
    <vType id="L4WKT9876_758" length="5.00" maxSpeed="33.00" vClass="passenger" emissionClass="HBEFA3/PC_G_EU4">
        <param key="customCO2" value="310.2068456818182"/>
    </vType>
    <vehicle id="59" type="L4WKT9876_758" depart="59.00">
        <route edges="2 29 28 -25"/>
    </vehicle>
    <vType id="EFR71M_589" length="5.00" maxSpeed="33.00" vClass="passenger" emissionClass="HBEFA3/PC_G_EU4">
        <param key="customCO2" value="183.08185048333334"/>
    </vType>
    <vehicle id="60" type="EFR71M_589" depart="60.00">
        <route edges="43 42 41 0 -65 -66 -47 -48 -50#0 -50#1 -51 -52 -81"/>
    </vehicle>
    <vType id="C451E10-Z2027_1073" length="5.00" maxSpeed="33.00" vClass="passenger" emissionClass="HBEFA3/PC_G_EU4">
        <param key="customCO2" value="218.506639825"/>
    </vType>
    <vehicle id="61" type="C451E10-Z2027_1073" depart="61.00">
        <route edges="47 -67 33 31 -76 -78#0 -78#1 -79 -80"/>
    </vehicle>
    <vType id="MD1N8GF29A1_623" length="5.00" maxSpeed="33.00" vClass="passenger" emissionClass="HBEFA3/PC_G_EU4">
        <param key="customCO2" value="203.47916666666666"/>
    </vType>
    <vehicle id="62" type="MD1N8GF29A1_623" depart="62.00">
        <route edges="-0 -1 29 28 -25 -38 -12 -13 16 -30 -76 -78#0 -78#1 -79 -80 -48 -50#0 -50#1"/>
    </vehicle>
    <vType id="GLB066_708" length="5.00" maxSpeed="33.00" vClass="passenger" emissionClass="HBEFA3/PC_G_EU4">
        <param key="customCO2" value="237.5"/>
    </vType>
    <vehicle id="63" type="GLB066_708" depart="63.00">
        <route edges="-10 -11 15 -28 -29 1 0 -65 -5 75 74"/>
    </vehicle>
    <vType id="KJEG38_1180" length="5.00" maxSpeed="33.00" vClass="passenger" emissionClass="HBEFA3/PC_G_EU4">
        <param key="customCO2" value="211.33333333333334"/>
    </vType>
    <vehicle id="64" type="KJEG38_1180" depart="64.00">
        <route edges="67 -47 -48 -50#0 -50#1 -51 -52 -81 -60 52"/>
    </vehicle>
    <vType id="LKFTT220_872" length="5.00" maxSpeed="33.00" vClass="passenger" emissionClass="HBEFA3/PC_G_EU4">
        <param key="customCO2" value="353.115"/>
    </vType>
    <vehicle id="65" type="LKFTT220_872" depart="65.00">
        <route edges="-5 -7 -8 34 -36 -38 -12 -13 -14"/>
    </vehicle>
    <vType id="AKA00022_443" length="5.00" maxSpeed="33.00" vClass="passenger" emissionClass="HBEFA3/PC_G_EU4">
        <param key="customCO2" value="337.948"/>
    </vType>
    <vehicle id="66" type="AKA00022_443" depart="66.00">
        <route edges="66 65 -0 -1 29 18 41 0 -65 -66 -47 80 79 78#1 78#0 77"/>
    </vehicle>
    <vType id="veh_2488LN8043_1285" length="5.00" maxSpeed="33.00" vClass="passenger" emissionClass="HBEFA3/PC_G_EU4">
        <param key="customCO2" value="238.5865"/>
    </vType>
    <vehicle id="67" type="veh_2488LN8043_1285" depart="67.00">
        <route edges="-19 -3 61 -13 16 -30 -76 -78#0"/>
    </vehicle>
    <vType id="C197E63-Z4030_1069" length="5.00" maxSpeed="33.00" vClass="passenger" emissionClass="HBEFA3/PC_G_EU4">
        <param key="customCO2" value="478.96999999999997"/>
    </vType>
    <vehicle id="68" type="C197E63-Z4030_1069" depart="68.00">
        <route edges="-17 41 0 -73 -74 -75 -7 43"/>
    </vehicle>
    <vType id="KPB087_1175" length="5.00" maxSpeed="33.00" vClass="passenger" emissionClass="HBEFA3/PC_G_EU4">
        <param key="customCO2" value="190.75"/>
    </vType>
    <vehicle id="69" type="KPB087_1175" depart="69.00">
        <route edges="43 42 -18 28 -25 -61 -44 -22"/>
    </vehicle>
    <vType id="veh_16X5HV553A_289" length="5.00" maxSpeed="33.00" vClass="passenger" emissionClass="HBEFA3/PC_G_EU4">
        <param key="customCO2" value="224.6505"/>
    </vType>
    <vehicle id="70" type="veh_16X5HV553A_289" depart="70.00">
        <route edges="-75 -7 43 42 41 0"/>
    </vehicle>
    <vType id="veh_7U51-4.0-H-801_401" length="5.00" maxSpeed="33.00" vClass="passenger" emissionClass="HBEFA3/PC_G_EU4">
        <param key="customCO2" value="442.82833389999996"/>
    </vType>
    <vehicle id="71" type="veh_7U51-4.0-H-801_401" depart="71.00">
        <route edges="-43 -8 34 -36 -38 -12 -13 16 -30 -76 -78#0 -78#1 -79 -80 47 66"/>
    </vehicle>
    <vType id="EB14-LD22_928" length="5.00" maxSpeed="33.00" vClass="passenger" emissionClass="HBEFA3/PC_G_EU4">
        <param key="customCO2" value="165.41351872500002"/>
    </vType>
    <vehicle id="72" type="EB14-LD22_928" depart="72.00">
        <route edges="-68 -69 -24 -31 -32"/>
    </vehicle>
    <vType id="JF6F4AU07AC_785" length="5.00" maxSpeed="33.00" vClass="passenger" emissionClass="HBEFA3/PC_G_EU4">
        <param key="customCO2" value="229.0969"/>
    </vType>
    <vehicle id="73" type="JF6F4AU07AC_785" depart="73.00">
        <route edges="-81 -60 52 51 50#1 50#0 49 80 79 78#1 78#0 77 24 4"/>
    </vehicle>
    <vType id="HG5L3U01AC_622" length="5.00" maxSpeed="33.00" vClass="passenger" emissionClass="HBEFA3/PC_G_EU4">
        <param key="customCO2" value="301.01099999999997"/>
    </vType>
    <vehicle id="74" type="HG5L3U01AC_622" depart="74.00">
        <route edges="-31 -58 -69 -24 -76 -78#0 -78#1 -79 -80 -48 -50#0"/>
    </vehicle>
    <vType id="EB701A_546" length="5.00" maxSpeed="33.00" vClass="passenger" emissionClass="HBEFA3/PC_G_EU4">
        <param key="customCO2" value="309.045"/>
    </vType>
    <vehicle id="75" type="EB701A_546" depart="75.00">
        <route edges="80 79 78#1 78#0 77 24 23"/>
    </vehicle>
    <vType id="veh_201006_1417" length="5.00" maxSpeed="33.00" vClass="passenger" emissionClass="HBEFA3/PC_G_EU4">
        <param key="customCO2" value="429.6"/>
    </vType>
    <vehicle id="76" type="veh_201006_1417" depart="76.00">
        <route edges="-69 -24 30 -10 -11 15 -28 18 -42 -43 -8"/>
    </vehicle>
    <vType id="T379400_1074" length="5.00" maxSpeed="33.00" vClass="passenger" emissionClass="HBEFA3/PC_G_EU4">
        <param key="customCO2" value="243.93260998181816"/>
    </vType>
    <vehicle id="77" type="T379400_1074" depart="77.00">
        <route edges="-21 -22 -23 -24 30 -10 -11 -36 -38"/>
    </vehicle>
    <vType id="veh_207Y902_415" length="5.00" maxSpeed="33.00" vClass="passenger" emissionClass="HBEFA3/PC_G_EU4">
        <param key="customCO2" value="336.8866"/>
    </vType>
    <vehicle id="78" type="veh_207Y902_415" depart="78.00">
        <route edges="-52 -81 -60 52 51 50#1 50#0 49 80 79 78#1 78#0 77 30 -10 -11 15 -28 18 17"/>
    </vehicle>
    <vType id="VW370_50379__15_1393" length="5.00" maxSpeed="33.00" vClass="passenger" emissionClass="HBEFA3/PC_G_EU4">
        <param key="customCO2" value="207.5"/>
    </vType>
    <vehicle id="79" type="VW370_50379__15_1393" depart="79.00">
        <route edges="-38 -12 -13 -14 -10 -11 -36"/>
    </vehicle>
    <vType id="AWB105_1167" length="5.00" maxSpeed="33.00" vClass="passenger" emissionClass="HBEFA3/PC_G_EU4">
        <param key="customCO2" value="230.0"/>
    </vType>
    <vehicle id="80" type="AWB105_1167" depart="80.00">
        <route edges="-17 -18 28 -25 -61 -44 21"/>
    </vehicle>
    <vType id="V83411_742" length="5.00" maxSpeed="33.00" vClass="passenger" emissionClass="HBEFA3/PC_G_EU4">
        <param key="customCO2" value="347.70625"/>
    </vType>
    <vehicle id="81" type="V83411_742" depart="81.00">
        <route edges="-38 -12 -13 16 -30 24 69"/>
    </vehicle>
    <vehicle id="82" type="KPB087_1175" depart="82.00">
        <route edges="62 3 2 1 0 -73 -17"/>
    </vehicle>
    <vType id="DBF-DL14_1302" length="5.00" maxSpeed="33.00" vClass="passenger" emissionClass="HBEFA3/PC_G_EU4">
        <param key="customCO2" value="246.27808869"/>
    </vType>
    <vehicle id="83" type="DBF-DL14_1302" depart="83.00">
        <route edges="-4 23 22 21 20 19 28"/>
    </vehicle>
    <vType id="K290728_92" length="5.00" maxSpeed="33.00" vClass="passenger" emissionClass="HBEFA3/PC_G_EU4">
        <param key="customCO2" value="213.041473775"/>
    </vType>
    <vehicle id="84" type="K290728_92" depart="84.00">
        <route edges="-32 -68 -69 4 -44 -22 -23"/>
    </vehicle>
    <vType id="veh_16-GL1H_854" length="5.00" maxSpeed="33.00" vClass="passenger" emissionClass="HBEFA3/PC_G_EU4">
        <param key="customCO2" value="235.5054032936508"/>
    </vType>
    <vehicle id="85" type="veh_16-GL1H_854" depart="85.00">
        <route edges="75 -59 -43 -8 34 -36 -38 -12 -13 16"/>
    </vehicle>
    <vType id="C117E20DETC-Z4022_969" length="5.00" maxSpeed="33.00" vClass="passenger" emissionClass="HBEFA3/PC_G_EU4">
        <param key="customCO2" value="215.10000000000002"/>
    </vType>
    <vehicle id="86" type="C117E20DETC-Z4022_969" depart="86.00">
        <route edges="-75 -7 -8 34 -36 -38 -12 -13 16 -30 -76 -78#0 -78#1 -79 -80 47"/>
    </vehicle>
    <vType id="T826907_1084" length="5.00" maxSpeed="33.00" vClass="passenger" emissionClass="HBEFA3/PC_G_EU4">
        <param key="customCO2" value="204.6105064333333"/>
    </vType>
    <vehicle id="87" type="T826907_1084" depart="87.00">
        <route edges="50#1 50#0 49 80 79 78#1 78#0 77 30 -10 -11 -36 -38 -12 -13 16 -30"/>
    </vehicle>
    <vehicle id="88" type="F099010_91" depart="88.00">
        <route edges="-2 -3 61 -13 16 -30 -31 -58 -69"/>
    </vehicle>
    <vType id="EBP31A_587" length="5.00" maxSpeed="33.00" vClass="passenger" emissionClass="HBEFA3/PC_G_EU4">
        <param key="customCO2" value="209.32625"/>
    </vType>
    <vehicle id="89" type="EBP31A_587" depart="89.00">
        <route edges="-68 -69 -24 30 -10 -11 15 -28 18 17 -74"/>
    </vehicle>
    <vType id="veh_251GGV4700_341" length="5.00" maxSpeed="33.00" vClass="passenger" emissionClass="HBEFA3/PC_G_EU4">
        <param key="customCO2" value="240.45275"/>
    </vType>
    <vehicle id="90" type="veh_251GGV4700_341" depart="90.00">
        <route edges="4 3 2 29"/>
    </vehicle>
    <vType id="veh_1444J61466_352" length="5.00" maxSpeed="33.00" vClass="passenger" emissionClass="HBEFA3/PC_G_EU4">
        <param key="customCO2" value="244.1785"/>
    </vType>
    <vehicle id="91" type="veh_1444J61466_352" depart="91.00">
        <route edges="8 7 6 -66 -47 80 79 78#1 78#0 77 30 -10 -11 15 -28 -29 -2"/>
    </vehicle>
    <vehicle id="92" type="TD1F0GU09A1_772" depart="92.00">
        <route edges="-66 -47 -48 -50#0 -50#1 -51 -52"/>
    </vehicle>
    <vType id="veh_2ECPE31-012_940" length="5.00" maxSpeed="33.00" vClass="passenger" emissionClass="HBEFA3/PC_G_EU4">
        <param key="customCO2" value="204.625"/>
    </vType>
    <vehicle id="93" type="veh_2ECPE31-012_940" depart="93.00">
        <route edges="65 -0 -1 29 -19 2 1 -41"/>
    </vehicle>
    <vType id="veh_2B30701_1093" length="5.00" maxSpeed="33.00" vClass="passenger" emissionClass="HBEFA3/PC_G_EU4">
        <param key="customCO2" value="224.7821052631579"/>
    </vType>
    <vehicle id="94" type="veh_2B30701_1093" depart="94.00">
        <route edges="-30 24 4 3 2 1 0 -73"/>
    </vehicle>
    <vType id="veh_461_90010_10_1404" length="5.00" maxSpeed="33.00" vClass="passenger" emissionClass="HBEFA3/PC_G_EU4">
        <param key="customCO2" value="307.84970167391305"/>
    </vType>
    <vehicle id="95" type="veh_461_90010_10_1404" depart="95.00">
        <route edges="-68 -69 4 -44"/>
    </vehicle>
    <vehicle id="96" type="L5BUU1783_767" depart="96.00">
        <route edges="-41 17 73"/>
    </vehicle>
    <vehicle id="97" type="MD1N8GF29A1_623" depart="97.00">
        <route edges="-7 -8 34 -36 -38 -12 -13 16 -30 -76 -78#0 -78#1 -79 -80 47 66 65"/>
    </vehicle>
    <vType id="MLE432_680" length="5.00" maxSpeed="33.00" vClass="passenger" emissionClass="HBEFA3/PC_G_EU4">
        <param key="customCO2" value="327.75"/>
    </vType>