<routes xmlns:xsi="http://www.w3.org/2001/XMLSchema-instance" xsi:noNamespaceSchemaLocation="http://sumo.dlr.de/xsd/routes_file.xsd">
    <trip id="0" depart="0.00" from="22" to="-10" type="WH94501_1087" />
    <trip id="1" depart="1.00" from="-44" to="-36" type="BTB096_1162" />
    <trip id="2" depart="2.00" from="4" to="29" type="W212E55DETC-Z2023-4_1008" />
    <trip id="3" depart="3.00" from="68" to="-19" type="DFIMP15_1252" />
    <trip id="4" depart="4.00" from="-68" to="-11" type="P880032_186" />
    <trip id="5" depart="5.00" from="-36" to="-79" type="GJE350_707" />
    <trip id="6" depart="6.00" from="-10" to="-31" type="EGBB1C_560" />
    <trip id="7" depart="7.00" from="23" to="0" type="WH97510_1095" />
    <trip id="8" depart="8.00" from="-36" to="18" type="veh_16X5NV547M_278" />
    <trip id="9" depart="9.00" from="50#1" to="-0" type="EBP31A_590" />
    <trip id="10" depart="10.00" from="50#1" to="30" type="CEK01C_555" />
    <trip id="11" depart="11.00" from="-52" to="-25" type="AM71-2.5-C-947_918" />
    <trip id="12" depart="12.00" from="78#0" to="-52" type="HYF3FUP108A_640" />
    <trip id="13" depart="13.00" from="-19" to="-2" type="ECBJ1C_594" />
    <trip id="14" depart="14.00" from="61" to="19" type="T384700_1077" />
    <trip id="15" depart="15.00" from="50#1" to="4" type="KJB441_1179" />
    <trip id="16" depart="16.00" from="-81" to="79" type="veh_37XESP9600_313" />
    <trip id="17" depart="17.00" from="-61" to="1" type="K3DS10300_1253" />
    <trip id="18" depart="18.00" from="52" to="20" type="L5FBB0722_433" />
    <trip id="19" depart="19.00" from="65" to="16" type="veh_14-AU1A_1332" />
    <trip id="20" depart="20.00" from="31" to="-12" type="EL510048_438" />
    <trip id="21" depart="21.00" from="-38" to="-47" type="AWB105_1167" />
    <trip id="22" depart="22.00" from="-18" to="-38" type="veh_351_00031_10_1403" />
    <trip id="23" depart="23.00" from="-2" to="-44" type="EAZA1A_578" />
    <trip id="24" depart="24.00" from="22" to="-60" type="L2PFD1993_381" />
    <trip id="25" depart="25.00" from="-60" to="-32" type="AWE318_1172" />
    <trip id="26" depart="26.00" from="-43" to="75" type="L4WKT9875_759" />
    <trip id="27" depart="27.00" from="23" to="2" type="PU87089_87" />
    <trip id="28" depart="28.00" from="-29" to="4" type="DFDF1D_11" />
    <trip id="29" depart="29.00" from="-28" to="-61" type="veh_10-AF1H_830" />
    <trip id="30" depart="30.00" from="8" to="22" type="AWE318_1172" />
    <trip id="31" depart="31.00" from="1" to="3" type="T739201_1078" />
    <trip id="32" depart="32.00" from="61" to="47" type="V0MKJ6992_765" />
    <trip id="33" depart="33.00" from="-38" to="-11" type="FFA00045_477" />
    <trip id="34" depart="34.00" from="-50#0" to="-43" type="AM71-2.5-C-947_918" />
    <trip id="35" depart="35.00" from="-32" to="75" type="AWB105_1167" />
    <trip id="36" depart="36.00" from="66" to="-50#0" type="RB4R6AU08A1_620" />
    <trip id="37" depart="37.00" from="24" to="-65" type="veh_16-ZV1H_1341" />
    <trip id="38" depart="38.00" from="7" to="-74" type="veh_14S41810_224" />
    <trip id="39" depart="39.00" from="-43" to="-41" type="EB11-CA52_924" />
    <trip id="40" depart="40.00" from="15" to="-43" type="EG1M1M_591" />
    <trip id="41" depart="41.00" from="17" to="69" type="V222E55DETC-Z4017_1056" />
    <trip id="42" depart="42.00" from="-65" to="-36" type="veh_366GAE4656_254" />
    <trip id="43" depart="43.00" from="80" to="-79" type="veh_6ECP5V31-007_908" />
    <trip id="44" depart="44.00" from="-19" to="-13" type="T826907_1084" />
    <trip id="45" depart="45.00" from="-20" to="21" type="TD1F0GU13A1_773" />
    <trip id="46" depart="46.00" from="49" to="-68" type="veh_16-ZE1M_1287" />
    <trip id="47" depart="47.00" from="-14" to="-61" type="DPE438_702" />
    <trip id="48" depart="48.00" from="80" to="-80" type="veh_0H38220_209" />
    <trip id="49" depart="49.00" from="78#1" to="65" type="veh_14-ZE1C_1326" />
    <trip id="50" depart="50.00" from="-1" to="34" type="CBE-DK14_1295" />
    <trip id="51" depart="51.00" from="29" to="-81" type="veh_201608_1414" />
    <trip id="52" depart="52.00" from="-43" to="22" type="VL64015_185" />
    <trip id="53" depart="53.00" from="-20" to="-69" type="HTF3FUP109A_782" />
    <trip id="54" depart="54.00" from="-73" to="78#0" type="veh_3EFPE31-004_937" />
    <trip id="55" depart="55.00" from="66" to="-43" type="FX99510_86" />
    <trip id="56" depart="56.00" from="-78#1" to="-3" type="veh_0G93507_195" />
    <trip id="57" depart="57.00" from="7" to="66" type="RB4R6AU08A1_620" />
    <trip id="58" depart="58.00" from="-48" to="22" type="EGME2A_4" />
    <trip id="59" depart="59.00" from="2" to="-25" type="veh_9KA00020_398" />
    <trip id="60" depart="60.00" from="43" to="-81" type="SKB387_1103" />
    <trip id="61" depart="61.00" from="47" to="-80" type="AWE503_1168" />
    <trip id="62" depart="62.00" from="-0" to="-50#1" type="veh_151GZV4311_340" />
    <trip id="63" depart="63.00" from="-10" to="74" type="MA1TZ4BJL92A14029_935" />
    <trip id="64" depart="64.00" from="67" to="52" type="L2PFD1993_381" />
    <trip id="65" depart="65.00" from="-5" to="-14" type="V-28_917" />
    <trip id="66" depart="66.00" from="66" to="77" type="JK2N8GF01A1_625" />
    <trip id="67" depart="67.00" from="-19" to="-78#0" type="A3UF-BAQ_45" />
    <trip id="68" depart="68.00" from="-17" to="43" type="AWE503_1168" />
    <trip id="69" depart="69.00" from="43" to="-22" type="EDA21M_543" />
    <trip id="70" depart="70.00" from="-75" to="0" type="veh_07-AT1A_1352" />
    <trip id="71" depart="71.00" from="-43" to="66" type="HSB052_697" />
    <trip id="72" depart="72.00" from="-68" to="-32" type="EC1A1A_561" />
    <trip id="73" depart="73.00" from="-81" to="4" type="FLB106_1114" />
    <trip id="74" depart="74.00" from="-31" to="-50#0" type="DBF-DL14_1302" />
    <trip id="75" depart="75.00" from="80" to="23" type="EM103803_483" />
    <trip id="76" depart="76.00" from="-69" to="-8" type="W212DE22TC-Z4010-1_979" />
    <trip id="77" depart="77.00" from="-21" to="-38" type="EC1A1A_561" />
    <trip id="78" depart="78.00" from="-52" to="17" type="VL64015_185" />
    <trip id="79" depart="79.00" from="-38" to="-36" type="DS17300_170" />
    <trip id="80" depart="80.00" from="-17" to="21" type="veh_16-ZV1H_1341" />
    <trip id="81" depart="81.00" from="-38" to="69" type="JF6F4AU05AC_786" />
    <trip id="82" depart="82.00" from="62" to="-17" type="EB10-A455_923" />
    <trip id="83" depart="83.00" from="-4" to="28" type="EL510048_438" />
    <trip id="84" depart="84.00" from="-32" to="-23" type="TX95505_1082" />
    <trip id="85" depart="85.00" from="75" to="16" type="veh_2ECPE31-012_940" />
    <trip id="86" depart="86.00" from="-75" to="47" type="W212DE22TC-Z4010-1_979" />
    <trip id="87" depart="87.00" from="50#1" to="-30" type="veh_2B27706_1085" />
    <trip id="88" depart="88.00" from="-2" to="-69" type="KJB441_1179" />
    <trip id="89" depart="89.00" from="-68" to="-74" type="L4KLT9708_750" />
    <trip id="90" depart="90.00" from="4" to="29" type="veh_12-GV3A_1322" />
    <trip id="91" depart="91.00" from="8" to="-2" type="L2FFF1237_431" />
    <trip id="92" depart="92.00" from="-66" to="-52" type="BY61021_74" />
    <trip id="93" depart="93.00" from="65" to="-41" type="PLF5NAUP11A_641" />
    <trip id="94" depart="94.00" from="-30" to="-73" type="veh_2488LN8043_1285" />
    <trip id="95" depart="95.00" from="-68" to="-44" type="W205E20DETC-Z6029_959" />
    <trip id="96" depart="96.00" from="-41" to="73" type="W166E35DEH-Z2036-2_1031" />
    <trip id="97" depart="97.00" from="-7" to="65" type="W212E55DETC-Z2023-4_1008" />
    <trip id="98" depart="98.00" from="0" to="-13" type="UM5F0U09AC_807" />
    <trip id="99" depart="99.00" from="80" to="6" type="veh_3618L56425_1281" />
    <trip id="100" depart="100.00" from="78#1" to="74" type="veh_201604_1439" />
    <trip id="101" depart="101.00" from="61" to="-28" type="HJE319_1181" />
    <trip id="102" depart="102.00" from="-76" to="-32" type="KJEB92_1178" />
    <trip id="103" depart="103.00" from="-65" to="-14" type="veh_180311_F152FNA_426" />
    <trip id="104" depart="104.00" from="-61" to="8" type="C117E20DETC-Z4022_969" />
    <trip id="105" depart="105.00" from="-43" to="47" type="EC1A1A_565" />
    <trip id="106" depart="106.00" from="-73" to="-68" type="veh_6216Y00050_282" />
    <trip id="107" depart="107.00" from="78#0" to="80" type="HTF3FUP110A_783" />
    <trip id="108" depart="108.00" from="1" to="33" type="F099010_91" />
    <trip id="109" depart="109.00" from="-25" to="-48" type="HJE319_1181" />
    <trip id="110" depart="110.00" from="78#1" to="16" type="EB16-CB7A_925" />
    <trip id="111" depart="111.00" from="0" to="42" type="ED9C2C_1" />
    <trip id="112" depart="112.00" from="-14" to="17" type="veh_2B27706_1085" />
    <trip id="113" depart="113.00" from="-78#1" to="62" type="VW351_780169_09_1382" />
    <trip id="114" depart="114.00" from="-25" to="78#0" type="AWE504_1169" />
    <trip id="115" depart="115.00" from="-18" to="-3" type="veh_16-GL1H_854" />
    <trip id="116" depart="116.00" from="18" to="29" type="PY39002_178" />
    <trip id="117" depart="117.00" from="-4" to="-21" type="veh_351_00031_10_1403" />
    <trip id="118" depart="118.00" from="68" to="-41" type="JLB049_1142" />
    <trip id="119" depart="119.00" from="18" to="20" type="EGAA1C_557" />
    <trip id="120" depart="120.00" from="-67" to="17" type="AU373-6-0813_16_18" />
    <trip id="121" depart="121.00" from="-8" to="75" type="ECFEGT2-8_1216" />
    <trip id="122" depart="122.00" from="-31" to="33" type="C451E10-Z2027_1073" />
    <trip id="123" depart="123.00" from="-4" to="-65" type="FL200133_492" />
    <trip id="124" depart="124.00" from="28" to="-5" type="EGA21C_550" />
    <trip id="125" depart="125.00" from="-50#0" to="42" type="GLB066_708" />
    <trip id="126" depart="126.00" from="-17" to="-74" type="VV98818_84" />
    <trip id="127" depart="127.00" from="80" to="80" type="UB3R6AU13A1_791" />
    <trip id="128" depart="128.00" from="-17" to="-32" type="W212DE30TC-Z0016_991" />
    <trip id="129" depart="129.00" from="-43" to="74" type="veh_3618L56425_1281" />
    <trip id="130" depart="130.00" from="67" to="67" type="VW351_780169_09_1382" />
    <trip id="131" depart="131.00" from="-60" to="-25" type="veh_12-AV1H_1328" />
    <trip id="132" depart="132.00" from="6" to="31" type="EAL81A_13" />
    <trip id="133" depart="133.00" from="2" to="8" type="veh_12-AV1H_1328" />
    <trip id="134" depart="134.00" from="23" to="-0" type="EC1A1A_561" />
    <trip id="135" depart="135.00" from="51" to="-5" type="PPE435_1118" />
    <trip id="136" depart="136.00" from="24" to="75" type="W212DE22TC-Z4010_978" />
    <trip id="137" depart="137.00" from="-23" to="-21" type="veh_19757_16_75" />
    <trip id="138" depart="138.00" from="-20" to="1" type="veh_12-AV1H_1329" />
    <trip id="139" depart="139.00" from="-44" to="19" type="veh_517W182_490" />
    <trip id="140" depart="140.00" from="33" to="-31" type="AC79601_88" />
    <trip id="141" depart="141.00" from="21" to="-43" type="EB401A_554" />
    <trip id="142" depart="142.00" from="-78#0" to="69" type="veh_14S41810_224" />
    <trip id="143" depart="143.00" from="61" to="-19" type="TBS6TT11_729" />
    <trip id="144" depart="144.00" from="-68" to="-44" type="BTE698_1160" />
    <trip id="145" depart="145.00" from="-0" to="46" type="PLF5NAUP11A_641" />
    <trip id="146" depart="146.00" from="22" to="-43" type="JF6F4AU05AC_786" />
    <trip id="147" depart="147.00" from="41" to="1" type="veh_145HV284DM_345" />
    <trip id="148" depart="148.00" from="-68" to="-1" type="FE-991-MT-12_1222" />
    <trip id="149" depart="149.00" from="-18" to="67" type="F476148_121" />
    <trip id="150" depart="150.00" from="69" to="0" type="RB4R6AU08A1_620" />
    <trip id="151" depart="151.00" from="6" to="17" type="K8DR67387_389" />
    <trip id="152" depart="152.00" from="-24" to="-22" type="EC1A1A_565" />
    <trip id="153" depart="153.00" from="-5" to="69" type="veh_151GZV4311_340" />
    <trip id="154" depart="154.00" from="50#0" to="65" type="veh_16X5HV553A_277" />
    <trip id="155" depart="155.00" from="69" to="-32" type="veh_16-ZV2H_1342" />
    <trip id="156" depart="156.00" from="-41" to="-2" type="DFDF1D_11" />
    <trip id="157" depart="157.00" from="47" to="67" type="veh_60XEGCA050_328" />
    <trip id="158" depart="158.00" from="-66" to="20" type="PPE437_1117" />
    <trip id="159" depart="159.00" from="-25" to="74" type="PLF5NAUP11A_641" />
    <trip id="160" depart="160.00" from="65" to="79" type="veh_60C0K41256_260" />
    <trip id="161" depart="161.00" from="50#1" to="67" type="ABQ298_713" />
    <trip id="162" depart="162.00" from="-10" to="4" type="AWB105_1167" />
    <trip id="163" depart="163.00" from="-51" to="74" type="ER317196_495" />
    <trip id="164" depart="164.00" from="50#0" to="65" type="EM100006_482" />
    <trip id="165" depart="165.00" from="50#1" to="-43" type="veh_07-AV4H_1324" />
    <trip id="166" depart="166.00" from="49" to="-20" type="FLB106_1114" />
    <trip id="167" depart="167.00" from="66" to="62" type="veh_0H21655_207" />
    <trip id="168" depart="168.00" from="-36" to="51" type="W205E20DETC-Z6029_959" />
    <trip id="169" depart="169.00" from="-74" to="-5" type="EGAA1C_557" />
    <trip id="170" depart="170.00" from="50#0" to="-38" type="KHEH10_1135" />
    <trip id="171" depart="171.00" from="-10" to="-30" type="PS4N0AU17A2_800" />
    <trip id="172" depart="172.00" from="-51" to="65" type="veh_08-ZP1M_1354" />
    <trip id="173" depart="173.00" from="78#1" to="-44" type="HKB165_1184" />
    <trip id="174" depart="174.00" from="22" to="-65" type="EGAA1C_557" />
    <trip id="175" depart="175.00" from="79" to="-81" type="FLE206_1113" />
    <trip id="176" depart="176.00" from="75" to="-21" type="veh_221941181_269" />
    <trip id="177" depart="177.00" from="78#1" to="-3" type="A696623_95" />
    <trip id="178" depart="178.00" from="78#0" to="-43" type="veh_0J77228_210" />
    <trip id="179" depart="179.00" from="-20" to="-69" type="veh_2219AN8021_270" />
    <trip id="180" depart="180.00" from="34" to="-50#0" type="L4BFF8525_432" />
    <trip id="181" depart="181.00" from="19" to="-79" type="EG1M1C_592" />
    <trip id="182" depart="182.00" from="-62" to="16" type="W212E55DETC-Z2023-1_1006" />
    <trip id="183" depart="183.00" from="-42" to="31" type="L6MKJ9402_746" />
    <trip id="184" depart="184.00" from="-0" to="74" type="EL100003_487" />
    <trip id="185" depart="185.00" from="-81" to="33" type="K478507_100" />
    <trip id="186" depart="186.00" from="41" to="28" type="R197E63-Z1023-1_1068" />
    <trip id="187" depart="187.00" from="-59" to="-17" type="CDH1-0.0-L-346_485" />
    <trip id="188" depart="188.00" from="28" to="-51" type="veh_201DGN4061_230" />
    <trip id="189" depart="189.00" from="-50#0" to="61" type="E6NA1A_566" />
    <trip id="190" depart="190.00" from="34" to="-5" type="veh_351_00031_10_1403" />
    <trip id="191" depart="191.00" from="-50#0" to="-66" type="E9YX1A_586" />
    <trip id="192" depart="192.00" from="-66" to="-48" type="veh_2ZFVP008_730" />
    <trip id="193" depart="193.00" from="-22" to="-67" type="veh_2ECPES2-018_941" />
    <trip id="194" depart="194.00" from="75" to="29" type="veh_36Z7Z61548_357" />
    <trip id="195" depart="195.00" from="69" to="2" type="veh_361_730_136_13_1384" />
    <trip id="196" depart="196.00" from="-5" to="0" type="veh_93UB-BAQ_20" />
    <trip id="197" depart="197.00" from="-0" to="-47" type="C117E20DETC-Z4022_969" />
    <trip id="198" depart="198.00" from="-68" to="17" type="C218E46DETC-Z5030-1_975" />
    <trip id="199" depart="199.00" from="24" to="-74" type="FNLE-LBQ_812" />
    <trip id="200" depart="200.00" from="-7" to="-32" type="veh_151GZV4311_340" />
    <trip id="201" depart="201.00" from="-75" to="69" type="veh_251GGV4700_341" />
    <trip id="202" depart="202.00" from="50#0" to="-29" type="veh_0ECL3TG1-010_905" />
    <trip id="203" depart="203.00" from="-19" to="-8" type="FPB063_1108" />
    <trip id="204" depart="204.00" from="21" to="-51" type="VX62501_171" />
    <trip id="205" depart="205.00" from="51" to="42" type="EEW01C_564" />
    <trip id="206" depart="206.00" from="28" to="-38" type="veh_244CGN4309_229" />
    <trip id="207" depart="207.00" from="-31" to="-10" type="EGLV4A_601" />
    <trip id="208" depart="208.00" from="-41" to="-75" type="GLB066_708" />
    <trip id="209" depart="209.00" from="61" to="-17" type="YD5N0AU25A2_775" />
    <trip id="210" depart="210.00" from="-67" to="21" type="EL510048_438" />
    <trip id="211" depart="211.00" from="-30" to="30" type="L2FFF2598_430" />
    <trip id="212" depart="212.00" from="-78#0" to="-41" type="TF96000_1097" />
    <trip id="213" depart="213.00" from="24" to="-0" type="DP43-3.5-J-220_404" />
    <trip id="214" depart="214.00" from="42" to="46" type="HLF6NAUP11A_639" />
    <trip id="215" depart="215.00" from="-20" to="-68" type="EDTW1C_579" />
    <trip id="216" depart="216.00" from="-29" to="78#0" type="veh_12-AV1H_1328" />
    <trip id="217" depart="217.00" from="-8" to="-13" type="EGAA1C_559" />
    <trip id="218" depart="218.00" from="-41" to="61" type="EB08-B831_920" />
    <trip id="219" depart="219.00" from="-73" to="50#0" type="MD4N8GF01A1_649" />
    <trip id="220" depart="220.00" from="28" to="8" type="veh_4ECPE31-029_909" />
    <trip id="221" depart="221.00" from="18" to="77" type="HSB053_692" />
    <trip id="222" depart="222.00" from="68" to="2" type="FL200133_492" />
    <trip id="223" depart="223.00" from="33" to="-79" type="W205E20DETC-Z6029_959" />
    <trip id="224" depart="224.00" from="52" to="0" type="PPE435_1118" />
    <trip id="225" depart="225.00" from="69" to="41" type="AKA00007_445" />
    <trip id="226" depart="226.00" from="-75" to="-42" type="F145016_164" />
    <trip id="227" depart="227.00" from="-41" to="22" type="EBP31A_590" />
    <trip id="228" depart="228.00" from="43" to="-8" type="L6WDD0449_384" />
    <trip id="229" depart="229.00" from="21" to="-44" type="EFLA4C_568" />
    <trip id="230" depart="230.00" from="-18" to="-47" type="veh_1444J61466_352" />
    <trip id="231" depart="231.00" from="-44" to="-50#1" type="AM71-2.5-C-947_918" />
    <trip id="232" depart="232.00" from="-81" to="-23" type="veh_16-GR2A_825" />
    <trip id="233" depart="233.00" from="-38" to="30" type="EB401A_554" />
    <trip id="234" depart="234.00" from="31" to="-14" type="L4DS13055_1256" />
    <trip id="235" depart="235.00" from="-66" to="0" type="KJB441_1179" />
    <trip id="236" depart="236.00" from="-67" to="-32" type="veh_53XECPA011A_335" />
    <trip id="237" depart="237.00" from="-67" to="69" type="RB4R6AU08A1_620" />
    <trip id="238" depart="238.00" from="17" to="30" type="veh_12-AV1H_1328" />
    <trip id="239" depart="239.00" from="62" to="43" type="SRB071_1100" />
    <trip id="240" depart="240.00" from="-61" to="-0" type="EB14-LD22_928" />
    <trip id="241" depart="241.00" from="-58" to="42" type="AM2N0GF11A1_796" />
    <trip id="242" depart="242.00" from="62" to="78#0" type="EB16-RB3B_930" />
    <trip id="243" depart="243.00" from="-67" to="41" type="EGAA1C_557" />
    <trip id="244" depart="244.00" from="0" to="19" type="HTF3FUP110A_783" />
    <trip id="245" depart="245.00" from="-36" to="-36" type="veh_12-SK2A_1370" />
    <trip id="246" depart="246.00" from="-69" to="-11" type="LME539_665" />
    <trip id="247" depart="247.00" from="-51" to="29" type="HLF6NAUP11A_639" />
    <trip id="248" depart="248.00" from="-66" to="-28" type="FEF00034_459" />
    <trip id="249" depart="249.00" from="-75" to="-22" type="D001500_128" />
    <trip id="250" depart="250.00" from="20" to="-10" type="EFR71C_588" />
    <trip id="251" depart="251.00" from="-65" to="15" type="MD1N8GF29A1_623" />
    <trip id="252" depart="252.00" from="-10" to="22" type="A451E10-Z8010-1_1072" />
    <trip id="253" depart="253.00" from="-23" to="-74" type="EE1J3C_563" />
    <trip id="254" depart="254.00" from="-13" to="-61" type="veh_2418Z46934_284" />
    <trip id="255" depart="255.00" from="-32" to="-50#1" type="veh_12-NP1A_1374" />
    <trip id="256" depart="256.00" from="43" to="-61" type="EG1M1C_592" />
    <trip id="257" depart="257.00" from="42" to="6" type="HTF3FUP110A_783" />
    <trip id="258" depart="258.00" from="-41" to="-18" type="veh_0C02938_198" />
    <trip id="259" depart="259.00" from="-10" to="-81" type="AKA00007_445" />
    <trip id="260" depart="260.00" from="80" to="-58" type="FPB063_1108" />
    <trip id="261" depart="261.00" from="23" to="47" type="HJE320_1182" />
    <trip id="262" depart="262.00" from="23" to="42" type="FPE260_1111" />
    <trip id="263" depart="263.00" from="77" to="-31" type="T739201_1079" />
    <trip id="264" depart="264.00" from="-10" to="-25" type="veh_53XECPA011A_290" />
    <trip id="265" depart="265.00" from="-22" to="28" type="veh_15-AZ1H_849" />
    <trip id="266" depart="266.00" from="15" to="-36" type="veh_12-NP1A_1374" />
    <trip id="267" depart="267.00" from="30" to="46" type="FPB063_1108" />
    <trip id="268" depart="268.00" from="-28" to="19" type="GTH1-3.5-J-690_511" />
    <trip id="269" depart="269.00" from="42" to="-21" type="veh_8J53-3.7-H-702_907" />
    <trip id="270" depart="270.00" from="51" to="78#1" type="veh_3A04503_1083" />
    <trip id="271" depart="271.00" from="-20" to="-10" type="KJEB92_1178" />
    <trip id="272" depart="272.00" from="-50#0" to="29" type="KHEH11_1133" />
    <trip id="273" depart="273.00" from="78#0" to="-65" type="FEF00034_459" />
    <trip id="274" depart="274.00" from="33" to="-18" type="EGBB1C_560" />
    <trip id="275" depart="275.00" from="3" to="21" type="AU373-6-0813_16_18" />
    <trip id="276" depart="276.00" from="-2" to="46" type="EG1M1C_592" />
    <trip id="277" depart="277.00" from="61" to="19" type="veh_13-AV2H_821" />
    <trip id="278" depart="278.00" from="-21" to="8" type="TX95505_1081" />
    <trip id="279" depart="279.00" from="47" to="-58" type="FBF-RH15_1296" />
    <trip id="280" depart="280.00" from="-68" to="-60" type="C453E09TC-Z6024_1070" />
    <trip id="281" depart="281.00" from="-79" to="-52" type="GD5N0U01AC_629" />
    <trip id="282" depart="282.00" from="61" to="51" type="veh_070791_898" />
    <trip id="283" depart="283.00" from="-20" to="78#0" type="L5BUU1783_767" />
    <trip id="284" depart="284.00" from="22" to="52" type="TDB50489_525" />
    <trip id="285" depart="285.00" from="31" to="-69" type="DBF-DL14_1302" />
    <trip id="286" depart="286.00" from="4" to="78#1" type="L2FFF1237_431" />
    <trip id="287" depart="287.00" from="-43" to="50#1" type="FLB106_1114" />
    <trip id="288" depart="288.00" from="-81" to="-76" type="HLF6NAUP11A_639" />
    <trip id="289" depart="289.00" from="-69" to="4" type="veh_16-ZV2H_1342" />
    <trip id="290" depart="290.00" from="-43" to="62" type="veh_14-ZE1A_1325" />
    <trip id="291" depart="291.00" from="52" to="-19" type="veh_270TT244_66" />
    <trip id="292" depart="292.00" from="67" to="-41" type="AWE502_1166" />
    <trip id="293" depart="293.00" from="-74" to="2" type="V0JKJ3276_769" />
    <trip id="294" depart="294.00" from="-61" to="-11" type="FKB337_1106" />
    <trip id="295" depart="295.00" from="62" to="-3" type="ER317196_495" />
    <trip id="296" depart="296.00" from="-32" to="50#0" type="TD1F0GU04A1_771" />
    <trip id="297" depart="297.00" from="-52" to="67" type="F145016_164" />
    <trip id="298" depart="298.00" from="31" to="-44" type="C218E30DETC-Z5010-4_973" />
    <trip id="299" depart="299.00" from="-1" to="77" type="ECN01A_608" />
    <trip id="300" depart="300.00" from="-19" to="34" type="C216E55DETC-Z2029_967" />
    <trip id="301" depart="301.00" from="-78#0" to="43" type="HSB051_696" />
    <trip id="302" depart="302.00" from="3" to="23" type="AU373-6-0813_16_18" />
    <trip id="303" depart="303.00" from="-78#0" to="49" type="veh_15-AZ3H_848" />
    <trip id="304" depart="304.00" from="-19" to="-36" type="FFA00013_479" />
    <trip id="305" depart="305.00" from="30" to="-5" type="LTE526_662" />
    <trip id="306" depart="306.00" from="17" to="-75" type="AWB105_1167" />
    <trip id="307" depart="307.00" from="-80" to="-68" type="veh_20P5094_1274" />
    <trip id="308" depart="308.00" from="41" to="-51" type="AWE318_1172" />
    <trip id="309" depart="309.00" from="31" to="-43" type="EL100003_487" />
    <trip id="310" depart="310.00" from="-41" to="-21" type="EFLA4C_568" />
    <trip id="311" depart="311.00" from="-30" to="-21" type="EB421M_551" />
    <trip id="312" depart="312.00" from="-81" to="43" type="veh_11-AT1A_1289" />
    <trip id="313" depart="313.00" from="-3" to="-36" type="HJE319_1181" />
    <trip id="314" depart="314.00" from="-76" to="34" type="JF6F4AU05AC_786" />
    <trip id="315" depart="315.00" from="79" to="-80" type="veh_08-ZP1M_1354" />
    <trip id="316" depart="316.00" from="-47" to="-2" type="veh_16X5NV547M_278" />
    <trip id="317" depart="317.00" from="-30" to="-38" type="KJEB92_1178" />
    <trip id="318" depart="318.00" from="-3" to="-1" type="V8WKJ4193_762" />
    <trip id="319" depart="319.00" from="-81" to="-44" type="T996307_1080" />
    <trip id="320" depart="320.00" from="79" to="1" type="T740204_1091" />
    <trip id="321" depart="321.00" from="30" to="-22" type="FBF-RH15_1297" />
    <trip id="322" depart="322.00" from="65" to="-78#0" type="WH97510_1095" />
    <trip id="323" depart="323.00" from="66" to="16" type="veh_201620_1422" />
    <trip id="324" depart="324.00" from="-75" to="-7" type="AU373-6-0813_16_18" />
    <trip id="325" depart="325.00" from="-3" to="-13" type="veh_144HV712DA_343" />
    <trip id="326" depart="326.00" from="75" to="-76" type="veh_251GGV4700_341" />
    <trip id="327" depart="327.00" from="51" to="-65" type="FX99510_86" />
    <trip id="328" depart="328.00" from="-17" to="21" type="SKB385_1098" />
    <trip id="329" depart="329.00" from="-13" to="-24" type="HKE623_1185" />
    <trip id="330" depart="330.00" from="15" to="-5" type="E9YX1A_586" />
    <trip id="331" depart="331.00" from="80" to="-21" type="DBF-DL14_1302" />
    <trip id="332" depart="332.00" from="43" to="19" type="veh_10-AF1H_830" />
    <trip id="333" depart="333.00" from="49" to="-38" type="DPE438_702" />
    <trip id="334" depart="334.00" from="-8" to="-73" type="FAPA-RAF_1379" />
    <trip id="335" depart="335.00" from="-7" to="65" type="YD5N0AU21A2_774" />
    <trip id="336" depart="336.00" from="8" to="-5" type="KJEG38_1180" />
    <trip id="337" depart="337.00" from="20" to="2" type="KPB089_1171" />
    <trip id="338" depart="338.00" from="41" to="77" type="LTE582_704" />
    <trip id="339" depart="339.00" from="-32" to="-32" type="veh_145HV283DA_344" />
    <trip id="340" depart="340.00" from="24" to="-25" type="P5353_1280" />
    <trip id="341" depart="341.00" from="-29" to="-18" type="veh_201101_1450" />
    <trip id="342" depart="342.00" from="-0" to="-73" type="EFR71C_588" />
    <trip id="343" depart="343.00" from="18" to="-48" type="EG1M1M_591" />
    <trip id="344" depart="344.00" from="-38" to="31" type="N09-AE1A_1200" />
    <trip id="345" depart="345.00" from="31" to="-73" type="EC1A1A_565" />
    <trip id="346" depart="346.00" from="3" to="73" type="veh_256W3303_1269" />
    <trip id="347" depart="347.00" from="49" to="20" type="EG1M1C_592" />
    <trip id="348" depart="348.00" from="24" to="74" type="AU373-6-0813_16_18" />
    <trip id="349" depart="349.00" from="-68" to="0" type="ECBJ1C_595" />
    <trip id="350" depart="350.00" from="23" to="7" type="veh_2418Z46934_284" />
    <trip id="351" depart="351.00" from="52" to="-17" type="veh_45367_893" />
    <trip id="352" depart="352.00" from="-28" to="-5" type="FS6R6AU01AC_646" />
    <trip id="353" depart="353.00" from="42" to="15" type="GMB013_1155" />
    <trip id="354" depart="354.00" from="-47" to="-22" type="VV98818_82" />
    <trip id="355" depart="355.00" from="3" to="30" type="DPH1-3.5-L-329_522" />
    <trip id="356" depart="356.00" from="75" to="-78#1" type="veh_8AU1-2.0-F-966_405" />
    <trip id="357" depart="357.00" from="-78#0" to="-18" type="GGA00067_463" />
    <trip id="358" depart="358.00" from="-12" to="-69" type="KPB089_1171" />
    <trip id="359" depart="359.00" from="-50#1" to="-41" type="veh_16-GN1A_1364" />
    <trip id="360" depart="360.00" from="-19" to="78#0" type="veh_3A04503_1083" />
    <trip id="361" depart="361.00" from="6" to="16" type="veh_2488LN8043_1285" />
    <trip id="362" depart="362.00" from="77" to="80" type="HSB051_696" />
    <trip id="363" depart="363.00" from="28" to="-43" type="veh_3EFPE31-004_937" />
    <trip id="364" depart="364.00" from="-12" to="42" type="L6PMD7726_370" />
    <trip id="365" depart="365.00" from="-75" to="23" type="EBP31A_587" />
    <trip id="366" depart="366.00" from="73" to="-3" type="UB3R6AU01A5_789" />
    <trip id="367" depart="367.00" from="17" to="21" type="HKE589_1183" />
    <trip id="368" depart="368.00" from="-78#0" to="-19" type="AM71-2.5-C-947_918" />
    <trip id="369" depart="369.00" from="-58" to="-51" type="ECFE-991GT3RS-16_1219" />
    <trip id="370" depart="370.00" from="28" to="62" type="DD85512_166" />
    <trip id="371" depart="371.00" from="-51" to="30" type="C117E20DETC-Z4022_969" />
    <trip id="372" depart="372.00" from="-47" to="77" type="veh_53XECUA000_292" />
    <trip id="373" depart="373.00" from="51" to="0" type="veh_0EFLFX21-001_942" />
    <trip id="374" depart="374.00" from="-73" to="-50#0" type="GLB066_708" />
    <trip id="375" depart="375.00" from="-50#1" to="78#1" type="HYF3FUP108A_640" />
    <trip id="376" depart="376.00" from="-66" to="-8" type="ECFE-991SKit-PDK-13_1208" />
    <trip id="377" depart="377.00" from="8" to="24" type="DNE506_688" />
    <trip id="378" depart="378.00" from="0" to="-67" type="AWE504_1169" />
    <trip id="379" depart="379.00" from="-30" to="-59" type="DBF-DH39_1311" />