<?xml version="1.0" encoding="UTF-8"?>

<!-- generated on 2025-10-02 19:51:30 by Eclipse SUMO netconvert Version 1.24.0
<netconvertConfiguration xmlns:xsi="http://www.w3.org/2001/XMLSchema-instance" xsi:noNamespaceSchemaLocation="http://sumo.dlr.de/xsd/netconvertConfiguration.xsd">

    <input>
        <osm-files value="map.osm"/>
    </input>

    <output>
        <output-file value="map.net.xml"/>
    </output>

    <projection>
        <proj.utm value="true"/>
    </projection>

</netconvertConfiguration>
-->

<net version="1.20" junctionCornerDetail="5" limitTurnSpeed="5.50" xmlns:xsi="http://www.w3.org/2001/XMLSchema-instance" xsi:noNamespaceSchemaLocation="http://sumo.dlr.de/xsd/net_file.xsd">

    <location netOffset="-658064.50,-4170599.18" convBoundary="0.00,0.00,4803.41,5169.79" origBoundary="-97.207615,37.668415,-97.153042,37.715443" projParameter="+proj=utm +zone=14 +ellps=WGS84 +datum=WGS84 +units=m +no_defs"/>

    <type id="highway.footway" priority="1" numLanes="1" speed="2.78" allow="pedestrian" oneway="1" width="2.00"/>
    <type id="highway.motorway" priority="14" numLanes="2" speed="39.44" allow="private emergency authority army vip passenger hov taxi bus coach delivery truck trailer motorcycle evehicle custom1 custom2" oneway="1"/>
    <type id="highway.motorway_link" priority="9" numLanes="1" speed="22.22" allow="private emergency authority army vip passenger hov taxi bus coach delivery truck trailer motorcycle evehicle custom1 custom2" oneway="1"/>
    <type id="highway.residential" priority="3" numLanes="1" speed="13.89" disallow="tram rail_urban rail rail_electric rail_fast ship container cable_car subway aircraft wheelchair scooter drone" oneway="0"/>
    <type id="highway.service" priority="1" numLanes="1" speed="5.56" allow="pedestrian delivery bicycle" oneway="0"/>
    <type id="highway.tertiary" priority="10" numLanes="1" speed="22.22" disallow="tram rail_urban rail rail_electric rail_fast ship container cable_car subway aircraft wheelchair scooter drone" oneway="0"/>
    <type id="highway.trunk" priority="13" numLanes="2" speed="27.78" disallow="pedestrian bicycle tram rail_urban rail rail_electric rail_fast ship container cable_car subway aircraft wheelchair scooter drone" oneway="0"/>

    <edge id=":10578799100_0" function="internal">
        <lane id=":10578799100_0_0" index="0" allow="private emergency authority army vip passenger hov taxi bus coach delivery truck trailer motorcycle evehicle custom1 custom2" speed="26.82" length="0.10" shape="1919.78,1178.55 1919.78,1178.55"/>
        <lane id=":10578799100_0_1" index="1" allow="private emergency authority army vip passenger hov taxi bus coach delivery truck trailer motorcycle evehicle custom1 custom2" speed="26.82" length="0.10" shape="1919.69,1181.75 1919.69,1181.75"/>
        <lane id=":10578799100_0_2" index="2" allow="private emergency authority army vip passenger hov taxi bus coach delivery truck trailer motorcycle evehicle custom1 custom2" speed="26.82" length="0.10" shape="1919.60,1184.94 1919.60,1184.94"/>
    </edge>
    <edge id=":10793588790_0" function="internal">
        <lane id=":10793588790_0_0" index="0" disallow="tram rail_urban rail rail_electric rail_fast ship container cable_car subway aircraft wheelchair scooter drone" speed="13.89" length="14.53" shape="2338.66,907.28 2325.61,900.89"/>
    </edge>
    <edge id=":10793588790_1" function="internal">
        <lane id=":10793588790_1_0" index="0" disallow="tram rail_urban rail rail_electric rail_fast ship container cable_car subway aircraft wheelchair scooter drone" speed="8.12" length="4.10" shape="2338.66,907.28 2335.46,905.15 2335.32,904.93"/>
    </edge>
    <edge id=":10793588790_2" function="internal">
        <lane id=":10793588790_2_0" index="0" disallow="tram rail_urban rail rail_electric rail_fast ship container cable_car subway aircraft wheelchair scooter drone" speed="3.65" length="1.44" shape="2338.66,907.28 2337.92,906.04"/>
    </edge>
    <edge id=":10793588790_9" function="internal">
        <lane id=":10793588790_9_0" index="0" disallow="tram rail_urban rail rail_electric rail_fast ship container cable_car subway aircraft wheelchair scooter drone" speed="8.12" length="10.20" shape="2335.32,904.93 2333.69,902.45 2333.34,899.20 2334.41,895.39"/>
    </edge>
    <edge id=":10793588790_10" function="internal">
        <lane id=":10793588790_10_0" index="0" disallow="tram rail_urban rail rail_electric rail_fast ship container cable_car subway aircraft wheelchair scooter drone" speed="3.65" length="3.23" shape="2337.92,906.04 2337.90,905.15 2338.60,904.60 2340.03,904.39"/>
    </edge>
    <edge id=":10793588790_3" function="internal">
        <lane id=":10793588790_3_0" index="0" disallow="tram rail_urban rail rail_electric rail_fast ship container cable_car subway aircraft wheelchair scooter drone" speed="6.65" length="9.26" shape="2337.34,896.67 2336.64,899.15 2336.85,901.27 2337.98,903.01 2340.03,904.39"/>
    </edge>
    <edge id=":10793588790_4" function="internal">
        <lane id=":10793588790_4_0" index="0" disallow="tram rail_urban rail rail_electric rail_fast ship container cable_car subway aircraft wheelchair scooter drone" speed="7.90" length="14.41" shape="2337.34,896.67 2335.25,900.05 2332.59,901.88 2329.38,902.16 2325.61,900.89"/>
    </edge>
    <edge id=":10793588790_5" function="internal">
        <lane id=":10793588790_5_0" index="0" disallow="tram rail_urban rail rail_electric rail_fast ship container cable_car subway aircraft wheelchair scooter drone" speed="3.65" length="4.67" shape="2337.34,896.67 2336.13,897.45 2335.24,897.49 2334.66,896.81 2334.41,895.39"/>
    </edge>
    <edge id=":10793588790_6" function="internal">
        <lane id=":10793588790_6_0" index="0" disallow="tram rail_urban rail rail_electric rail_fast ship container cable_car subway aircraft wheelchair scooter drone" speed="6.39" length="9.04" shape="2327.05,898.04 2329.42,898.83 2331.43,898.66 2333.10,897.51 2334.41,895.39"/>
    </edge>
    <edge id=":10793588790_7" function="internal">
        <lane id=":10793588790_7_0" index="0" disallow="tram rail_urban rail rail_electric rail_fast ship container cable_car subway aircraft wheelchair scooter drone" speed="13.89" length="14.45" shape="2327.05,898.04 2340.03,904.39"/>
    </edge>
    <edge id=":10793588790_8" function="internal">
        <lane id=":10793588790_8_0" index="0" disallow="tram rail_urban rail rail_electric rail_fast ship container cable_car subway aircraft wheelchair scooter drone" speed="3.65" length="1.44" shape="2327.05,898.04 2327.76,899.29"/>
    </edge>
    <edge id=":10793588790_11" function="internal">
        <lane id=":10793588790_11_0" index="0" disallow="tram rail_urban rail rail_electric rail_fast ship container cable_car subway aircraft wheelchair scooter drone" speed="3.65" length="3.23" shape="2327.76,899.29 2327.76,900.19 2327.04,900.72 2325.61,900.89"/>
    </edge>
    <edge id=":10793590310_0" function="internal">
        <lane id=":10793590310_0_0" index="0" disallow="tram rail_urban rail rail_electric rail_fast ship container cable_car subway aircraft wheelchair scooter drone" speed="3.65" length="4.67" shape="2847.57,462.93 2846.39,462.11 2846.00,461.30 2846.42,460.51 2847.63,459.73"/>
    </edge>
    <edge id=":10793590311_0" function="internal">
        <lane id=":10793590311_0_0" index="0" disallow="tram rail_urban rail rail_electric rail_fast ship container cable_car subway aircraft wheelchair scooter drone" speed="13.89" length="14.47" shape="2998.66,494.64 2987.92,484.94"/>
    </edge>
    <edge id=":10793590311_1" function="internal">
        <lane id=":10793590311_1_0" index="0" disallow="tram rail_urban rail rail_electric rail_fast ship container cable_car subway aircraft wheelchair scooter drone" speed="7.89" length="3.60" shape="2998.66,494.64 2996.53,491.74"/>
    </edge>
    <edge id=":10793590311_2" function="internal">
        <lane id=":10793590311_2_0" index="0" disallow="tram rail_urban rail rail_electric rail_fast ship container cable_car subway aircraft wheelchair scooter drone" speed="3.65" length="1.45" shape="2998.66,494.64 2998.30,493.24"/>
    </edge>
    <edge id=":10793590311_9" function="internal">
        <lane id=":10793590311_9_0" index="0" disallow="tram rail_urban rail rail_electric rail_fast ship container cable_car subway aircraft wheelchair scooter drone" speed="7.89" length="10.95" shape="2996.53,491.74 2996.20,491.29 2995.43,488.09 2996.34,485.03 2998.93,482.10"/>
    </edge>
    <edge id=":10793590311_10" function="internal">
        <lane id=":10793590311_10_0" index="0" disallow="tram rail_urban rail rail_electric rail_fast ship container cable_car subway aircraft wheelchair scooter drone" speed="3.65" length="3.24" shape="2998.30,493.24 2998.53,492.37 2999.37,492.04 3000.80,492.25"/>
    </edge>
    <edge id=":10793590311_3" function="internal">
        <lane id=":10793590311_3_0" index="0" disallow="tram rail_urban rail rail_electric rail_fast ship container cable_car subway aircraft wheelchair scooter drone" speed="6.31" length="8.92" shape="3000.98,484.57 2999.39,486.36 2998.83,488.24 2999.30,490.20 3000.80,492.25"/>
    </edge>
    <edge id=":10793590311_4" function="internal">
        <lane id=":10793590311_4_0" index="0" disallow="tram rail_urban rail rail_electric rail_fast ship container cable_car subway aircraft wheelchair scooter drone" speed="8.53" length="14.45" shape="3000.98,484.57 2997.54,486.77 2994.22,487.56 2991.01,486.95 2987.92,484.94"/>
    </edge>
    <edge id=":10793590311_5" function="internal">
        <lane id=":10793590311_5_0" index="0" disallow="tram rail_urban rail rail_electric rail_fast ship container cable_car subway aircraft wheelchair scooter drone" speed="3.65" length="4.67" shape="3000.98,484.57 2999.54,484.72 2998.73,484.36 2998.52,483.49 2998.93,482.10"/>
    </edge>
    <edge id=":10793590311_6" function="internal">
        <lane id=":10793590311_6_0" index="0" disallow="tram rail_urban rail rail_electric rail_fast ship container cable_car subway aircraft wheelchair scooter drone" speed="7.14" length="9.83" shape="2990.06,482.56 2992.11,483.88 2994.28,484.24 2996.55,483.65 2998.93,482.10"/>
    </edge>
    <edge id=":10793590311_7" function="internal">
        <lane id=":10793590311_7_0" index="0" disallow="tram rail_urban rail rail_electric rail_fast ship container cable_car subway aircraft wheelchair scooter drone" speed="13.89" length="14.47" shape="2990.06,482.56 3000.80,492.25"/>
    </edge>
    <edge id=":10793590311_8" function="internal">
        <lane id=":10793590311_8_0" index="0" disallow="tram rail_urban rail rail_electric rail_fast ship container cable_car subway aircraft wheelchair scooter drone" speed="3.65" length="1.44" shape="2990.06,482.56 2990.42,483.95"/>
    </edge>
    <edge id=":10793590311_11" function="internal">
        <lane id=":10793590311_11_0" index="0" disallow="tram rail_urban rail rail_electric rail_fast ship container cable_car subway aircraft wheelchair scooter drone" speed="3.65" length="3.23" shape="2990.42,483.95 2990.18,484.82 2989.35,485.15 2987.92,484.94"/>
    </edge>
    <edge id=":10793590319_0" function="internal">
        <lane id=":10793590319_0_0" index="0" disallow="tram rail_urban rail rail_electric rail_fast ship container cable_car subway aircraft wheelchair scooter drone" speed="3.65" length="4.67" shape="3142.66,465.62 3143.84,466.45 3144.23,467.26 3143.81,468.05 3142.60,468.82"/>
    </edge>
    <edge id=":10793590320_0" function="internal">
        <lane id=":10793590320_0_0" index="0" disallow="tram rail_urban rail rail_electric rail_fast ship container cable_car subway aircraft wheelchair scooter drone" speed="13.89" length="14.40" shape="2908.81,464.34 2894.41,463.96"/>
    </edge>
    <edge id=":10793590320_1" function="internal">
        <lane id=":10793590320_1_0" index="0" disallow="tram rail_urban rail rail_electric rail_fast ship container cable_car subway aircraft wheelchair scooter drone" speed="8.00" length="4.07" shape="2908.81,464.34 2904.97,463.69 2904.82,463.59"/>
    </edge>
    <edge id=":10793590320_2" function="internal">
        <lane id=":10793590320_2_0" index="0" disallow="tram rail_urban rail rail_electric rail_fast ship container cable_car subway aircraft wheelchair scooter drone" speed="3.65" length="1.44" shape="2908.81,464.34 2907.63,463.51"/>
    </edge>
    <edge id=":10793590320_9" function="internal">
        <lane id=":10793590320_9_0" index="0" disallow="tram rail_urban rail rail_electric rail_fast ship container cable_car subway aircraft wheelchair scooter drone" speed="8.00" length="10.13" shape="2904.82,463.59 2902.27,461.97 2900.69,459.17 2900.24,455.31"/>
    </edge>
    <edge id=":10793590320_10" function="internal">
        <lane id=":10793590320_10_0" index="0" disallow="tram rail_urban rail rail_electric rail_fast ship container cable_car subway aircraft wheelchair scooter drone" speed="3.65" length="3.23" shape="2907.63,463.51 2907.25,462.70 2907.67,461.91 2908.89,461.14"/>
    </edge>
    <edge id=":10793590320_3" function="internal">
        <lane id=":10793590320_3_0" index="0" disallow="tram rail_urban rail rail_electric rail_fast ship container cable_car subway aircraft wheelchair scooter drone" speed="6.51" length="9.03" shape="2903.44,455.39 2903.73,457.85 2904.73,459.63 2906.45,460.72 2908.89,461.14"/>
    </edge>
    <edge id=":10793590320_4" function="internal">
        <lane id=":10793590320_4_0" index="0" disallow="tram rail_urban rail rail_electric rail_fast ship container cable_car subway aircraft wheelchair scooter drone" speed="8.00" length="14.19" shape="2903.44,455.39 2902.79,459.23 2901.07,461.93 2898.28,463.51 2894.41,463.96"/>
    </edge>
    <edge id=":10793590320_5" function="internal">
        <lane id=":10793590320_5_0" index="0" disallow="tram rail_urban rail rail_electric rail_fast ship container cable_car subway aircraft wheelchair scooter drone" speed="3.65" length="4.67" shape="2903.44,455.39 2902.61,456.57 2901.80,456.95 2901.01,456.53 2900.24,455.31"/>
    </edge>
    <edge id=":10793590320_6" function="internal">
        <lane id=":10793590320_6_0" index="0" disallow="tram rail_urban rail rail_electric rail_fast ship container cable_car subway aircraft wheelchair scooter drone" speed="6.51" length="9.03" shape="2894.50,460.76 2896.96,460.47 2898.73,459.47 2899.83,457.75 2900.24,455.31"/>
    </edge>
    <edge id=":10793590320_7" function="internal">
        <lane id=":10793590320_7_0" index="0" disallow="tram rail_urban rail rail_electric rail_fast ship container cable_car subway aircraft wheelchair scooter drone" speed="13.89" length="14.40" shape="2894.50,460.76 2908.89,461.14"/>
    </edge>
    <edge id=":10793590320_8" function="internal">
        <lane id=":10793590320_8_0" index="0" disallow="tram rail_urban rail rail_electric rail_fast ship container cable_car subway aircraft wheelchair scooter drone" speed="3.65" length="1.44" shape="2894.50,460.76 2895.67,461.59"/>
    </edge>
    <edge id=":10793590320_11" function="internal">
        <lane id=":10793590320_11_0" index="0" disallow="tram rail_urban rail rail_electric rail_fast ship container cable_car subway aircraft wheelchair scooter drone" speed="3.65" length="3.23" shape="2895.67,461.59 2896.05,462.40 2895.63,463.19 2894.41,463.96"/>
    </edge>
    <edge id=":122129404_0" function="internal">
        <lane id=":122129404_0_0" index="0" disallow="tram rail_urban rail rail_electric rail_fast ship container cable_car subway aircraft wheelchair scooter drone" speed="13.89" length="14.63" shape="3442.80,1194.26 3428.17,1193.94"/>
    </edge>
    <edge id=":122129404_1" function="internal">
        <lane id=":122129404_1_0" index="0" disallow="tram rail_urban rail rail_electric rail_fast ship container cable_car subway aircraft wheelchair scooter drone" speed="7.61" length="4.37" shape="3442.80,1194.26 3438.49,1193.54"/>
    </edge>
    <edge id=":122129404_2" function="internal">
        <lane id=":122129404_2_0" index="0" disallow="tram rail_urban rail rail_electric rail_fast ship container cable_car subway aircraft wheelchair scooter drone" speed="3.65" length="1.44" shape="3442.80,1194.26 3441.61,1193.43"/>
    </edge>
    <edge id=":122129404_9" function="internal">
        <lane id=":122129404_9_0" index="0" disallow="tram rail_urban rail rail_electric rail_fast ship container cable_car subway aircraft wheelchair scooter drone" speed="7.61" length="10.93" shape="3438.49,1193.54 3435.82,1191.63 3434.80,1188.51 3435.41,1184.19"/>
    </edge>
    <edge id=":122129404_10" function="internal">
        <lane id=":122129404_10_0" index="0" disallow="tram rail_urban rail rail_electric rail_fast ship container cable_car subway aircraft wheelchair scooter drone" speed="3.65" length="3.23" shape="3441.61,1193.43 3441.23,1192.62 3441.65,1191.83 3442.87,1191.06"/>
    </edge>
    <edge id=":122129404_3" function="internal">
        <lane id=":122129404_3_0" index="0" disallow="tram rail_urban rail rail_electric rail_fast ship container cable_car subway aircraft wheelchair scooter drone" speed="6.01" length="9.08" shape="3438.49,1185.08 3438.12,1187.65 3438.73,1189.50 3440.31,1190.63 3442.87,1191.06"/>
    </edge>
    <edge id=":122129404_4" function="internal">
        <lane id=":122129404_4_0" index="0" disallow="tram rail_urban rail rail_electric rail_fast ship container cable_car subway aircraft wheelchair scooter drone" speed="9.05" length="14.74" shape="3438.49,1185.08 3436.85,1189.02 3434.59,1191.81 3431.70,1193.45 3428.17,1193.94"/>
    </edge>
    <edge id=":122129404_5" function="internal">
        <lane id=":122129404_5_0" index="0" disallow="tram rail_urban rail rail_electric rail_fast ship container cable_car subway aircraft wheelchair scooter drone" speed="3.65" length="4.67" shape="3438.49,1185.08 3437.38,1186.01 3436.50,1186.17 3435.85,1185.56 3435.41,1184.19"/>
    </edge>
    <edge id=":122129404_6" function="internal">
        <lane id=":122129404_6_0" index="0" disallow="tram rail_urban rail rail_electric rail_fast ship container cable_car subway aircraft wheelchair scooter drone" speed="7.72" length="10.51" shape="3428.24,1190.74 3430.65,1190.37 3432.65,1189.16 3434.24,1187.10 3435.41,1184.19"/>
    </edge>
    <edge id=":122129404_7" function="internal">
        <lane id=":122129404_7_0" index="0" disallow="tram rail_urban rail rail_electric rail_fast ship container cable_car subway aircraft wheelchair scooter drone" speed="13.89" length="14.63" shape="3428.24,1190.74 3442.87,1191.06"/>
    </edge>
    <edge id=":122129404_8" function="internal">
        <lane id=":122129404_8_0" index="0" disallow="tram rail_urban rail rail_electric rail_fast ship container cable_car subway aircraft wheelchair scooter drone" speed="3.65" length="1.44" shape="3428.24,1190.74 3429.42,1191.56"/>
    </edge>
    <edge id=":122129404_11" function="internal">
        <lane id=":122129404_11_0" index="0" disallow="tram rail_urban rail rail_electric rail_fast ship container cable_car subway aircraft wheelchair scooter drone" speed="3.65" length="3.23" shape="3429.42,1191.56 3429.81,1192.37 3429.39,1193.16 3428.17,1193.94"/>
    </edge>
    <edge id=":122129430_0" function="internal">
        <lane id=":122129430_0_0" index="0" disallow="tram rail_urban rail rail_electric rail_fast ship container cable_car subway aircraft wheelchair scooter drone" speed="13.89" length="14.61" shape="3415.14,1097.22 3408.60,1084.16"/>
    </edge>
    <edge id=":122129430_1" function="internal">
        <lane id=":122129430_1_0" index="0" disallow="tram rail_urban rail rail_electric rail_fast ship container cable_car subway aircraft wheelchair scooter drone" speed="7.79" length="4.31" shape="3415.14,1097.22 3413.78,1093.36 3413.80,1093.14"/>
    </edge>
    <edge id=":122129430_2" function="internal">
        <lane id=":122129430_2_0" index="0" disallow="tram rail_urban rail rail_electric rail_fast ship container cable_car subway aircraft wheelchair scooter drone" speed="3.65" length="1.44" shape="3415.14,1097.22 3415.29,1095.79"/>
    </edge>
    <edge id=":122129430_9" function="internal">
        <lane id=":122129430_9_0" index="0" disallow="tram rail_urban rail rail_electric rail_fast ship container cable_car subway aircraft wheelchair scooter drone" speed="7.79" length="10.38" shape="3413.80,1093.14 3414.07,1090.12 3416.02,1087.53 3419.62,1085.56"/>
    </edge>
    <edge id=":122129430_10" function="internal">
        <lane id=":122129430_10_0" index="0" disallow="tram rail_urban rail rail_electric rail_fast ship container cable_car subway aircraft wheelchair scooter drone" speed="3.65" length="3.23" shape="3415.29,1095.79 3415.82,1095.07 3416.71,1095.05 3417.98,1095.74"/>
    </edge>
    <edge id=":122129430_3" function="internal">
        <lane id=":122129430_3_0" index="0" disallow="tram rail_urban rail rail_electric rail_fast ship container cable_car subway aircraft wheelchair scooter drone" speed="6.25" length="9.05" shape="3420.73,1088.56 3418.52,1089.77 3417.32,1091.37 3417.14,1093.36 3417.98,1095.74"/>
    </edge>
    <edge id=":122129430_4" function="internal">
        <lane id=":122129430_4_0" index="0" disallow="tram rail_urban rail rail_electric rail_fast ship container cable_car subway aircraft wheelchair scooter drone" speed="8.34" length="14.44" shape="3420.73,1088.56 3416.78,1089.48 3413.44,1089.05 3410.71,1087.27 3408.60,1084.16"/>
    </edge>
    <edge id=":122129430_5" function="internal">
        <lane id=":122129430_5_0" index="0" disallow="tram rail_urban rail rail_electric rail_fast ship container cable_car subway aircraft wheelchair scooter drone" speed="3.65" length="4.67" shape="3420.73,1088.56 3419.33,1088.23 3418.67,1087.62 3418.77,1086.73 3419.62,1085.56"/>
    </edge>
    <edge id=":122129430_6" function="internal">
        <lane id=":122129430_6_0" index="0" disallow="tram rail_urban rail rail_electric rail_fast ship container cable_car subway aircraft wheelchair scooter drone" speed="6.91" length="9.61" shape="3411.48,1082.78 3412.88,1084.80 3414.69,1085.94 3416.94,1086.19 3419.62,1085.56"/>
    </edge>
    <edge id=":122129430_7" function="internal">
        <lane id=":122129430_7_0" index="0" disallow="tram rail_urban rail rail_electric rail_fast ship container cable_car subway aircraft wheelchair scooter drone" speed="13.89" length="14.49" shape="3411.48,1082.78 3417.98,1095.74"/>
    </edge>
    <edge id=":122129430_8" function="internal">
        <lane id=":122129430_8_0" index="0" disallow="tram rail_urban rail rail_electric rail_fast ship container cable_car subway aircraft wheelchair scooter drone" speed="3.65" length="1.44" shape="3411.48,1082.78 3411.28,1084.21"/>
    </edge>
    <edge id=":122129430_11" function="internal">
        <lane id=":122129430_11_0" index="0" disallow="tram rail_urban rail rail_electric rail_fast ship container cable_car subway aircraft wheelchair scooter drone" speed="3.65" length="3.23" shape="3411.28,1084.21 3410.73,1084.92 3409.84,1084.90 3408.60,1084.16"/>
    </edge>
    <edge id=":122129442_0" function="internal">
        <lane id=":122129442_0_0" index="0" disallow="tram rail_urban rail rail_electric rail_fast ship container cable_car subway aircraft wheelchair scooter drone" speed="6.18" length="9.05" shape="3378.34,1025.48 3376.86,1023.41 3375.13,1022.44 3373.15,1022.57 3370.92,1023.79"/>
    </edge>
    <edge id=":122129442_1" function="internal">
        <lane id=":122129442_1_0" index="0" disallow="tram rail_urban rail rail_electric rail_fast ship container cable_car subway aircraft wheelchair scooter drone" speed="13.89" length="14.09" shape="3378.34,1025.48 3376.75,1022.23 3375.45,1019.05 3374.45,1015.77 3373.77,1012.23"/>
    </edge>
    <edge id=":122129442_2" function="internal">
        <lane id=":122129442_2_0" index="0" disallow="tram rail_urban rail rail_electric rail_fast ship container cable_car subway aircraft wheelchair scooter drone" speed="3.65" length="1.44" shape="3378.34,1025.48 3378.50,1024.05"/>
    </edge>
    <edge id=":122129442_9" function="internal">
        <lane id=":122129442_9_0" index="0" disallow="tram rail_urban rail rail_electric rail_fast ship container cable_car subway aircraft wheelchair scooter drone" speed="3.65" length="3.23" shape="3378.50,1024.05 3379.02,1023.32 3379.92,1023.31 3381.18,1024.01"/>
    </edge>
    <edge id=":122129442_3" function="internal">
        <lane id=":122129442_3_0" index="0" disallow="tram rail_urban rail rail_electric rail_fast ship container cable_car subway aircraft wheelchair scooter drone" speed="13.89" length="13.01" shape="3376.93,1011.78 3377.57,1015.16 3378.46,1018.09 3379.64,1020.92 3381.18,1024.01"/>
    </edge>
    <edge id=":122129442_4" function="internal">
        <lane id=":122129442_4_0" index="0" disallow="tram rail_urban rail rail_electric rail_fast ship container cable_car subway aircraft wheelchair scooter drone" speed="10.04" length="3.29" shape="3376.93,1011.78 3376.92,1015.07"/>
    </edge>
    <edge id=":122129442_5" function="internal">
        <lane id=":122129442_5_0" index="0" disallow="tram rail_urban rail rail_electric rail_fast ship container cable_car subway aircraft wheelchair scooter drone" speed="3.65" length="1.44" shape="3376.93,1011.78 3376.31,1013.08"/>
    </edge>
    <edge id=":122129442_10" function="internal">
        <lane id=":122129442_10_0" index="0" disallow="tram rail_urban rail rail_electric rail_fast ship container cable_car subway aircraft wheelchair scooter drone" speed="10.04" length="10.83" shape="3376.92,1015.07 3375.91,1018.17 3373.91,1021.07 3370.92,1023.79"/>
    </edge>
    <edge id=":122129442_11" function="internal">
        <lane id=":122129442_11_0" index="0" disallow="tram rail_urban rail rail_electric rail_fast ship container cable_car subway aircraft wheelchair scooter drone" speed="3.65" length="3.23" shape="3376.31,1013.08 3375.57,1013.59 3374.73,1013.31 3373.77,1012.23"/>
    </edge>
    <edge id=":122129442_6" function="internal">
        <lane id=":122129442_6_0" index="0" disallow="tram rail_urban rail rail_electric rail_fast ship container cable_car subway aircraft wheelchair scooter drone" speed="8.80" length="10.70" shape="3368.99,1021.23 3371.34,1019.13 3372.92,1016.93 3373.73,1014.63 3373.77,1012.23"/>
    </edge>
    <edge id=":122129442_7" function="internal">
        <lane id=":122129442_7_0" index="0" disallow="tram rail_urban rail rail_electric rail_fast ship container cable_car subway aircraft wheelchair scooter drone" speed="7.73" length="14.86" shape="3368.99,1021.23 3372.65,1019.23 3375.91,1019.02 3378.75,1020.61 3381.18,1024.01"/>
    </edge>
    <edge id=":122129442_8" function="internal">
        <lane id=":122129442_8_0" index="0" disallow="tram rail_urban rail rail_electric rail_fast ship container cable_car subway aircraft wheelchair scooter drone" speed="3.65" length="4.67" shape="3368.99,1021.23 3370.43,1021.15 3371.23,1021.55 3371.40,1022.43 3370.92,1023.79"/>
    </edge>
    <edge id=":122133940_0" function="internal">
        <lane id=":122133940_0_0" index="0" disallow="tram rail_urban rail rail_electric rail_fast ship container cable_car subway aircraft wheelchair scooter drone" speed="3.65" length="4.67" shape="3174.18,2394.08 3173.35,2395.26 3172.54,2395.64 3171.75,2395.22 3170.98,2393.99"/>
    </edge>
    <edge id=":122146616_0" function="internal">
        <lane id=":122146616_0_0" index="0" disallow="tram rail_urban rail rail_electric rail_fast ship container cable_car subway aircraft wheelchair scooter drone" speed="6.43" length="9.04" shape="3198.49,1527.52 3196.02,1527.73 3194.23,1528.69 3193.14,1530.40 3192.73,1532.86"/>
    </edge>
    <edge id=":122146616_1" function="internal">
        <lane id=":122146616_1_0" index="0" disallow="tram rail_urban rail rail_electric rail_fast ship container cable_car subway aircraft wheelchair scooter drone" speed="8.12" length="14.23" shape="3198.49,1527.52 3194.64,1526.75 3191.91,1524.98 3190.30,1522.19 3189.83,1518.39"/>
    </edge>
    <edge id=":122146616_2" function="internal">
        <lane id=":122146616_2_0" index="0" disallow="tram rail_urban rail rail_electric rail_fast ship container cable_car subway aircraft wheelchair scooter drone" speed="3.65" length="4.67" shape="3198.49,1527.52 3197.34,1526.65 3196.98,1525.83 3197.43,1525.06 3198.67,1524.32"/>
    </edge>
    <edge id=":122146616_3" function="internal">
        <lane id=":122146616_3_0" index="0" disallow="tram rail_urban rail rail_electric rail_fast ship container cable_car subway aircraft wheelchair scooter drone" speed="6.65" length="9.20" shape="3193.03,1518.46 3193.34,1520.90 3194.38,1522.69 3196.16,1523.83 3198.67,1524.32"/>
    </edge>
    <edge id=":122146616_4" function="internal">
        <lane id=":122146616_4_0" index="0" disallow="tram rail_urban rail rail_electric rail_fast ship container cable_car subway aircraft wheelchair scooter drone" speed="22.22" length="14.40" shape="3193.03,1518.46 3192.73,1532.86"/>
    </edge>
    <edge id=":122146616_5" function="internal">
        <lane id=":122146616_5_0" index="0" disallow="tram rail_urban rail rail_electric rail_fast ship container cable_car subway aircraft wheelchair scooter drone" speed="3.65" length="1.44" shape="3193.03,1518.46 3192.20,1519.64"/>
    </edge>
    <edge id=":122146616_9" function="internal">
        <lane id=":122146616_9_0" index="0" disallow="tram rail_urban rail rail_electric rail_fast ship container cable_car subway aircraft wheelchair scooter drone" speed="3.65" length="3.23" shape="3192.20,1519.64 3191.39,1520.03 3190.60,1519.61 3189.83,1518.39"/>
    </edge>
    <edge id=":122146616_6" function="internal">
        <lane id=":122146616_6_0" index="0" disallow="tram rail_urban rail rail_electric rail_fast ship container cable_car subway aircraft wheelchair scooter drone" speed="22.22" length="14.41" shape="3189.53,1532.80 3189.83,1518.39"/>
    </edge>