<routes>
    <!-- Car -->
    <vType id="car" accel="2.6" decel="4.5" sigma="0.5" length="5" maxSpeed="25" color="1,0,0"/>
    <!-- Bus -->
    <vType id="bus" accel="1.2" decel="4.0" sigma="0.5" length="12" maxSpeed="18" color="0,0,1"/>
    <!-- Truck -->
    <vType id="truck" accel="1.0" decel="3.5" sigma="0.5" length="8" maxSpeed="20" color="0,1,0"/>
</routes>