<?xml version="1.0" encoding="UTF-8"?>

<!-- generated on 2025-10-02 23:56:35 by Eclipse SUMO netedit Version 1.24.0
<neteditConfiguration xmlns:xsi="http://www.w3.org/2001/XMLSchema-instance" xsi:noNamespaceSchemaLocation="http://sumo.dlr.de/xsd/neteditConfiguration.xsd">

    <input>
        <additional-files value="C:\SUMO2Unity-main\Scenario1.2\Sumo2Unity.Poly.xml"/>
        <sumo-net-file value="C:\SUMO2Unity-main\Scenario1.2\Sumo2Unity.net.xml"/>
    </input>

    <output>
        <output-file value="C:\SUMO2Unity-main\Scenario1.2\Sumo2Unity.net.xml"/>
    </output>

    <processing>
        <offset.disable-normalization value="true"/>
    </processing>

    <junctions>
        <no-turnarounds value="true"/>
    </junctions>

    <netedit>
        <new-network value="false"/>
    </netedit>

</neteditConfiguration>
-->

<net version="1.20" junctionCornerDetail="5" limitTurnSpeed="5.50" xmlns:xsi="http://www.w3.org/2001/XMLSchema-instance" xsi:noNamespaceSchemaLocation="http://sumo.dlr.de/xsd/net_file.xsd">

    <location netOffset="0.00,0.00" convBoundary="-73.86,-64.47,122.81,8.21" origBoundary="10000000000.00,10000000000.00,-10000000000.00,-10000000000.00" projParameter="!"/>

    <edge id=":J1_0" function="internal">
        <lane id=":J1_0_0" index="0" speed="13.89" length="14.38" shape="33.91,9.05 19.53,8.95"/>
    </edge>
    <edge id=":J1_1" function="internal">
        <lane id=":J1_1_0" index="0" speed="8.00" length="4.05" shape="33.91,9.05 30.06,8.47 29.93,8.38"/>
    </edge>
    <edge id=":J1_6" function="internal">
        <lane id=":J1_6_0" index="0" speed="8.00" length="10.15" shape="29.93,8.38 27.33,6.79 25.71,4.02 25.20,0.16"/>
    </edge>
    <edge id=":J1_2" function="internal">
        <lane id=":J1_2_0" index="0" speed="6.50" length="9.03" shape="28.40,0.20 28.72,2.65 29.75,4.41 31.49,5.48 33.94,5.85"/>
    </edge>
    <edge id=":J1_3" function="internal">
        <lane id=":J1_3_0" index="0" speed="8.02" length="14.19" shape="28.40,0.20 27.81,4.04 26.13,6.78 23.37,8.42 19.53,8.95"/>
    </edge>
    <edge id=":J1_4" function="internal">
        <lane id=":J1_4_0" index="0" speed="6.53" length="9.06" shape="19.55,5.75 22.00,5.41 23.76,4.37 24.82,2.62 25.20,0.16"/>
    </edge>
    <edge id=":J1_5" function="internal">
        <lane id=":J1_5_0" index="0" speed="13.89" length="14.39" shape="19.55,5.75 33.94,5.85"/>
    </edge>
    <edge id=":J2_0" function="internal">
        <lane id=":J2_0_0" index="0" speed="6.08" length="7.57" shape="121.69,5.18 121.32,7.21 120.39,8.65 118.90,9.51 116.85,9.79"/>
    </edge>
    <edge id=":J2_1" function="internal">
        <lane id=":J2_1_0" index="0" speed="3.91" length="2.52" shape="116.88,6.59 117.56,6.50 118.06,6.21 118.37,5.73 118.49,5.05"/>
    </edge>
    <edge id=":J3_0" function="internal">
        <lane id=":J3_0_0" index="0" speed="6.07" length="7.86" shape="119.57,-64.36 121.70,-64.01 123.20,-63.07 124.05,-61.52 124.27,-59.37"/>
    </edge>
    <edge id=":J3_1" function="internal">
        <lane id=":J3_1_0" index="0" speed="3.90" length="2.62" shape="121.08,-59.50 121.00,-60.21 120.72,-60.73 120.22,-61.05 119.51,-61.16"/>
    </edge>
    <edge id=":J4_0" function="internal">
        <lane id=":J4_0_0" index="0" speed="3.90" length="2.59" shape="30.74,-62.81 30.03,-62.73 29.52,-62.43 29.22,-61.93 29.11,-61.23"/>
    </edge>
    <edge id=":J4_1" function="internal">
        <lane id=":J4_1_0" index="0" speed="6.08" length="7.78" shape="25.91,-61.27 26.23,-63.38 27.16,-64.87 28.68,-65.75 30.80,-66.01"/>
    </edge>

    <edge id="-E0" from="J1" to="J0" priority="-1">
        <lane id="-E0_0" index="0" speed="13.89" length="93.40" shape="19.53,8.95 -73.87,8.51"/>
    </edge>
    <edge id="-E1" from="J2" to="J1" priority="-1">
        <lane id="-E1_0" index="0" speed="13.89" length="82.94" shape="116.85,9.79 33.91,9.05"/>
    </edge>
    <edge id="-E2" from="J3" to="J2" priority="-1">
        <lane id="-E2_0" index="0" speed="13.89" length="64.60" shape="124.27,-59.37 121.69,5.18"/>
    </edge>
    <edge id="-E3" from="J4" to="J3" priority="-1">
        <lane id="-E3_0" index="0" speed="13.89" length="88.79" shape="30.80,-66.01 119.57,-64.36"/>
    </edge>
    <edge id="-E4" from="J1" to="J4" priority="-1">
        <lane id="-E4_0" index="0" speed="13.89" length="61.43" shape="25.20,0.16 25.91,-61.27"/>
    </edge>
    <edge id="E0" from="J0" to="J1" priority="-1">
        <lane id="E0_0" index="0" speed="13.89" length="93.40" shape="-73.85,5.31 19.55,5.75"/>
    </edge>
    <edge id="E1" from="J1" to="J2" priority="-1">
        <lane id="E1_0" index="0" speed="13.89" length="82.94" shape="33.94,5.85 116.88,6.59"/>
    </edge>
    <edge id="E2" from="J2" to="J3" priority="-1">
        <lane id="E2_0" index="0" speed="13.89" length="64.60" shape="118.49,5.05 121.08,-59.50"/>
    </edge>
    <edge id="E3" from="J3" to="J4" priority="-1">
        <lane id="E3_0" index="0" speed="13.89" length="88.79" shape="119.51,-61.16 30.74,-62.81"/>
    </edge>
    <edge id="E4" from="J4" to="J1" priority="-1">
        <lane id="E4_0" index="0" speed="13.89" length="61.43" shape="29.11,-61.23 28.40,0.20"/>
    </edge>

    <junction id="J0" type="dead_end" x="-73.86" y="6.91" incLanes="-E0_0" intLanes="" shape="-73.86,6.91 -73.88,10.11 -73.86,6.91"/>
    <junction id="J1" type="priority" x="26.72" y="7.39" incLanes="-E1_0 E4_0 E0_0" intLanes=":J1_0_0 :J1_6_0 :J1_2_0 :J1_3_0 :J1_4_0 :J1_5_0" shape="33.90,10.65 33.95,4.25 31.74,3.79 30.97,3.22 30.42,2.44 30.10,1.44 30.00,0.22 23.60,0.14 23.13,2.38 22.57,3.16 21.78,3.72 20.78,4.05 19.55,4.15 19.52,10.55">
        <request index="0" response="000000" foes="001000" cont="0"/>
        <request index="1" response="110000" foes="111000" cont="1"/>
        <request index="2" response="100000" foes="100000" cont="0"/>
        <request index="3" response="100011" foes="100011" cont="0"/>
        <request index="4" response="000000" foes="000010" cont="0"/>
        <request index="5" response="000000" foes="001110" cont="0"/>
    </junction>
    <junction id="J2" type="priority" x="119.97" y="8.21" incLanes="-E2_0 E1_0" intLanes=":J2_0_0 :J2_1_0" shape="123.29,5.24 116.90,4.99 116.84,11.39 120.31,10.73 121.55,9.88 122.46,8.68 123.04,7.13">
        <request index="0" response="00" foes="00" cont="0"/>
        <request index="1" response="00" foes="00" cont="0"/>
    </junction>
    <junction id="J3" type="priority" x="122.81" y="-62.70" incLanes="-E3_0 E2_0" intLanes=":J3_0_0 :J3_1_0" shape="119.60,-65.96 119.48,-59.56 125.87,-59.31 125.77,-61.31 125.29,-62.95 124.43,-64.24 123.20,-65.17 121.59,-65.74">
        <request index="0" response="00" foes="00" cont="0"/>
        <request index="1" response="00" foes="00" cont="0"/>
    </junction>
    <junction id="J4" type="priority" x="27.55" y="-64.47" incLanes="E3_0 -E4_0" intLanes=":J4_0_0 :J4_1_0" shape="30.71,-61.21 30.83,-67.61 27.24,-66.96 25.97,-66.09 25.07,-64.85 24.51,-63.25 24.31,-61.29">
        <request index="0" response="00" foes="00" cont="0"/>
        <request index="1" response="00" foes="00" cont="0"/>
    </junction>

    <junction id=":J1_6_0" type="internal" x="29.93" y="8.38" incLanes=":J1_1_0 E0_0" intLanes=":J1_3_0 :J1_4_0 :J1_5_0"/>

    <connection from="-E1" to="-E0" fromLane="0" toLane="0" via=":J1_0_0" dir="s" state="M"/>
    <connection from="-E1" to="-E4" fromLane="0" toLane="0" via=":J1_1_0" dir="l" state="m"/>
    <connection from="-E2" to="-E1" fromLane="0" toLane="0" via=":J2_0_0" dir="l" state="M"/>
    <connection from="-E3" to="-E2" fromLane="0" toLane="0" via=":J3_0_0" dir="l" state="M"/>
    <connection from="-E4" to="-E3" fromLane="0" toLane="0" via=":J4_1_0" dir="l" state="M"/>
    <connection from="E0" to="-E4" fromLane="0" toLane="0" via=":J1_4_0" dir="r" state="M"/>
    <connection from="E0" to="E1" fromLane="0" toLane="0" via=":J1_5_0" dir="s" state="M"/>
    <connection from="E1" to="E2" fromLane="0" toLane="0" via=":J2_1_0" dir="r" state="M"/>
    <connection from="E2" to="E3" fromLane="0" toLane="0" via=":J3_1_0" dir="r" state="M"/>
    <connection from="E3" to="E4" fromLane="0" toLane="0" via=":J4_0_0" dir="r" state="M"/>
    <connection from="E4" to="E1" fromLane="0" toLane="0" via=":J1_2_0" dir="r" state="m"/>
    <connection from="E4" to="-E0" fromLane="0" toLane="0" via=":J1_3_0" dir="l" state="m"/>

    <connection from=":J1_0" to="-E0" fromLane="0" toLane="0" dir="s" state="M"/>
    <connection from=":J1_1" to="-E4" fromLane="0" toLane="0" via=":J1_6_0" dir="l" state="m"/>
    <connection from=":J1_6" to="-E4" fromLane="0" toLane="0" dir="l" state="M"/>
    <connection from=":J1_2" to="E1" fromLane="0" toLane="0" dir="r" state="M"/>
    <connection from=":J1_3" to="-E0" fromLane="0" toLane="0" dir="l" state="M"/>
    <connection from=":J1_4" to="-E4" fromLane="0" toLane="0" dir="r" state="M"/>
    <connection from=":J1_5" to="E1" fromLane="0" toLane="0" dir="s" state="M"/>
    <connection from=":J2_0" to="-E1" fromLane="0" toLane="0" dir="l" state="M"/>
    <connection from=":J2_1" to="E2" fromLane="0" toLane="0" dir="r" state="M"/>
    <connection from=":J3_0" to="-E2" fromLane="0" toLane="0" dir="l" state="M"/>
    <connection from=":J3_1" to="E3" fromLane="0" toLane="0" dir="r" state="M"/>
    <connection from=":J4_0" to="E4" fromLane="0" toLane="0" dir="r" state="M"/>
    <connection from=":J4_1" to="-E3" fromLane="0" toLane="0" dir="l" state="M"/>

</net>
