<?xml version="1.0" encoding="UTF-8"?>

<!-- generated on 2025-10-31 08:49:29 by Eclipse SUMO duarouter Version 1.24.0
<duarouterConfiguration xmlns:xsi="http://www.w3.org/2001/XMLSchema-instance" xsi:noNamespaceSchemaLocation="http://sumo.dlr.de/xsd/duarouterConfiguration.xsd">

    <input>
        <net-file value="Town03.net.xml"/>
        <additional-files value="vtypes.xml"/>
        <route-files value="custom.trips.xml"/>
    </input>

    <output>
        <output-file value="custom.rou.xml"/>
    </output>

</duarouterConfiguration>
-->

<routes xmlns:xsi="http://www.w3.org/2001/XMLSchema-instance" xsi:noNamespaceSchemaLocation="http://sumo.dlr.de/xsd/routes_file.xsd">
    <vType id="veh_361_730_136_13_1384" length="5.00" maxSpeed="33.00" vClass="passenger" emissionClass="HBEFA3/PC_G_EU4">
        <param key="customCO2" value="171.3281165142857"/>
    </vType>
    <vehicle id="0" type="veh_361_730_136_13_1384" depart="0.00">
        <route edges="22 21 62 61 -13 -14 -10"/>
    </vehicle>
    <vType id="C117E20DETC-Z5021-3_970" length="5.00" maxSpeed="33.00" vClass="passenger" emissionClass="HBEFA3/PC_G_EU4">
        <param key="customCO2" value="239.475"/>
    </vType>
    <vehicle id="1" type="C117E20DETC-Z5021-3_970" depart="1.00">
        <route edges="-44 21 62 61 -13 -14 -10 -11 -36"/>
    </vehicle>
    <vType id="veh_2ECPE31-012_940" length="5.00" maxSpeed="33.00" vClass="passenger" emissionClass="HBEFA3/PC_G_EU4">
        <param key="customCO2" value="204.625"/>
    </vType>
    <vehicle id="2" type="veh_2ECPE31-012_940" depart="2.00">
        <route edges="4 3 2 29"/>
    </vehicle>
    <vType id="V221DE30TC-Z3856_1048" length="5.00" maxSpeed="33.00" vClass="passenger" emissionClass="HBEFA3/PC_G_EU4">
        <param key="customCO2" value="307.135"/>
    </vType>
    <vehicle id="3" type="V221DE30TC-Z3856_1048" depart="3.00">
        <route edges="68 67 66 65 -0 -1 29 -19"/>
    </vehicle>
    <vType id="veh_3ETTP008_873" length="5.00" maxSpeed="33.00" vClass="passenger" emissionClass="HBEFA3/PC_G_EU4">
        <param key="customCO2" value="295.0573380727273"/>
    </vType>
    <vehicle id="4" type="veh_3ETTP008_873" depart="4.00">
        <route edges="-68 -69 -24 30 -10 -11"/>
    </vehicle>
    <vType id="EG1M1C_592" length="5.00" maxSpeed="33.00" vClass="passenger" emissionClass="HBEFA3/PC_G_EU4">
        <param key="customCO2" value="225.9855878"/>
    </vType>
    <vehicle id="5" type="EG1M1C_592" depart="5.00">
        <route edges="-36 -38 -12 -13 16 -30 -76 -78#0 -78#1 -79"/>
    </vehicle>
    <vType id="C994902_131" length="5.00" maxSpeed="33.00" vClass="passenger" emissionClass="HBEFA3/PC_G_EU4">
        <param key="customCO2" value="303.76132882"/>
    </vType>
    <vehicle id="6" type="C994902_131" depart="6.00">
        <route edges="-10 -11 -36 -38 -12 -13 16 -30 -31"/>
    </vehicle>
    <vType id="DPE438_702" length="5.00" maxSpeed="33.00" vClass="passenger" emissionClass="HBEFA3/PC_G_EU4">
        <param key="customCO2" value="209.25"/>
    </vType>
    <vehicle id="7" type="DPE438_702" depart="7.00">
        <route edges="23 22 21 20 2 1 0"/>
    </vehicle>
    <vType id="QF2F4AU02A1_781" length="5.00" maxSpeed="33.00" vClass="passenger" emissionClass="HBEFA3/PC_G_EU4">
        <param key="customCO2" value="238.1568937970588"/>
    </vType>
    <vehicle id="8" type="QF2F4AU02A1_781" depart="8.00">
        <route edges="-36 -38 -12 -13 -14 -10 -11 15 -28 18"/>
    </vehicle>
    <vType id="FB71-3.5-F-586_455" length="5.00" maxSpeed="33.00" vClass="passenger" emissionClass="HBEFA3/PC_G_EU4">
        <param key="customCO2" value="425.37800000000004"/>
    </vType>
    <vehicle id="9" type="FB71-3.5-F-586_455" depart="9.00">
        <route edges="50#1 50#0 49 47 66 65 -0"/>
    </vehicle>
    <vType id="veh_20P5094_1271" length="5.00" maxSpeed="33.00" vClass="passenger" emissionClass="HBEFA3/PC_G_EU4">
        <param key="customCO2" value="277.73580000000004"/>
    </vType>
    <vehicle id="10" type="veh_20P5094_1271" depart="10.00">
        <route edges="50#1 50#0 49 80 79 78#1 78#0 77 30"/>
    </vehicle>
    <vType id="veh_206GKE4204_249" length="5.00" maxSpeed="33.00" vClass="passenger" emissionClass="HBEFA3/PC_G_EU4">
        <param key="customCO2" value="288.35"/>
    </vType>
    <vehicle id="11" type="veh_206GKE4204_249" depart="11.00">
        <route edges="-52 -81 -60 52 51 50#1 50#0 49 47 66 65 -0 -1 29 28 -25"/>
    </vehicle>
    <vType id="GTH1-3.5-J-690_511" length="5.00" maxSpeed="33.00" vClass="passenger" emissionClass="HBEFA3/PC_G_EU4">
        <param key="customCO2" value="431.24459515"/>
    </vType>
    <vehicle id="12" type="GTH1-3.5-J-690_511" depart="12.00">
        <route edges="78#0 77 30 -10 46 8 7 6 -66 -47 -48 -50#0 -50#1 -51 -52"/>
    </vehicle>
    <vType id="veh_16X5HV553A_289" length="5.00" maxSpeed="33.00" vClass="passenger" emissionClass="HBEFA3/PC_G_EU4">
        <param key="customCO2" value="224.6505"/>
    </vType>
    <vehicle id="13" type="veh_16X5HV553A_289" depart="13.00">
        <route edges="-19 2 1 -41 -18 -29 -2"/>
    </vehicle>
    <vType id="HSB052_697" length="5.00" maxSpeed="33.00" vClass="passenger" emissionClass="HBEFA3/PC_G_EU4">
        <param key="customCO2" value="225.5625"/>
    </vType>
    <vehicle id="14" type="HSB052_697" depart="14.00">
        <route edges="61 -13 -14 -10 -11 15 -28 -29 -2 19"/>
    </vehicle>
    <vType id="EB16-CB7A_925" length="5.00" maxSpeed="33.00" vClass="passenger" emissionClass="HBEFA3/PC_G_EU4">
        <param key="customCO2" value="246.490935"/>
    </vType>
    <vehicle id="15" type="EB16-CB7A_925" depart="15.00">
        <route edges="50#1 50#0 49 80 79 78#1 78#0 77 24 4"/>
    </vehicle>
    <vType id="veh_11-ZA1H_820" length="5.00" maxSpeed="33.00" vClass="passenger" emissionClass="HBEFA3/PC_G_EU4">
        <param key="customCO2" value="181.92298432857143"/>
    </vType>
    <vehicle id="16" type="veh_11-ZA1H_820" depart="16.00">
        <route edges="-81 -60 52 51 50#1 50#0 49 80 79"/>
    </vehicle>
    <vehicle id="17" type="veh_3ETTP008_873" depart="17.00">
        <route edges="-61 3 2 1"/>
    </vehicle>
    <vType id="C117E20DETC-Z4022_969" length="5.00" maxSpeed="33.00" vClass="passenger" emissionClass="HBEFA3/PC_G_EU4">
        <param key="customCO2" value="215.10000000000002"/>
    </vType>
    <vehicle id="18" type="C117E20DETC-Z4022_969" depart="18.00">
        <route edges="52 51 50#1 50#0 49 80 79 78#1 78#0 77 24 23 22 21 20"/>
    </vehicle>
    <vType id="veh_10EDV-1_1317" length="5.00" maxSpeed="33.00" vClass="passenger" emissionClass="HBEFA3/PC_G_EU4">
        <param key="customCO2" value="250.30465264166665"/>
    </vType>
    <vehicle id="19" type="veh_10EDV-1_1317" depart="19.00">
        <route edges="65 -0 -1 29 28 -25 -38 -12 -13 16"/>
    </vehicle>
    <vType id="MLE353_672" length="5.00" maxSpeed="33.00" vClass="passenger" emissionClass="HBEFA3/PC_G_EU4">
        <param key="customCO2" value="331.27272727272725"/>
    </vType>
    <vehicle id="20" type="MLE353_672" depart="20.00">
        <route edges="31 30 -10 -11 -36 -38 -12"/>
    </vehicle>
    <vType id="veh_4ECPE31-029_909" length="5.00" maxSpeed="33.00" vClass="passenger" emissionClass="HBEFA3/PC_G_EU4">
        <param key="customCO2" value="220.4785031973913"/>
    </vType>
    <vehicle id="21" type="veh_4ECPE31-029_909" depart="21.00">
        <route edges="-38 -12 -13 -14 -10 46 8 7 6 -66 -47"/>
    </vehicle>
    <vType id="WH97510_1096" length="5.00" maxSpeed="33.00" vClass="passenger" emissionClass="HBEFA3/PC_G_EU4">
        <param key="customCO2" value="244.295157025"/>
    </vType>
    <vehicle id="22" type="WH97510_1096" depart="22.00">
        <route edges="-18 28 -25 -38"/>
    </vehicle>
    <vType id="HSB051_696" length="5.00" maxSpeed="33.00" vClass="passenger" emissionClass="HBEFA3/PC_G_EU4">
        <param key="customCO2" value="210.0"/>
    </vType>
    <vehicle id="23" type="HSB051_696" depart="23.00">
        <route edges="-2 -3 -44"/>
    </vehicle>
    <vType id="FKB337_1106" length="5.00" maxSpeed="33.00" vClass="passenger" emissionClass="HBEFA3/PC_G_EU4">
        <param key="customCO2" value="245.4"/>
    </vType>
    <vehicle id="24" type="FKB337_1106" depart="24.00">
        <route edges="22 21 62 -4 -24 -76 -78#0 -78#1 -79 -80 -48 -50#0 -50#1 -51 -52 -81 -60"/>
    </vehicle>
    <vType id="W212DE22TC-Z4010-1_979" length="5.00" maxSpeed="33.00" vClass="passenger" emissionClass="HBEFA3/PC_G_EU4">
        <param key="customCO2" value="237.57500000000002"/>
    </vType>
    <vehicle id="25" type="W212DE22TC-Z4010-1_979" depart="25.00">
        <route edges="-60 52 51 50#1 50#0 49 80 79 78#1 78#0 77 -31 -32"/>
    </vehicle>
    <vType id="KPE537_1174" length="5.00" maxSpeed="33.00" vClass="passenger" emissionClass="HBEFA3/PC_G_EU4">
        <param key="customCO2" value="196.25"/>
    </vType>
    <vehicle id="26" type="KPE537_1174" depart="26.00">
        <route edges="-43 -8 34 15 -28 -29 1 0 -65 -5 75"/>
    </vehicle>
    <vType id="LY63000_203" length="5.00" maxSpeed="33.00" vClass="passenger" emissionClass="HBEFA3/PC_G_EU4">
        <param key="customCO2" value="429.7675"/>
    </vType>
    <vehicle id="27" type="LY63000_203" depart="27.00">
        <route edges="23 22 21 20 2"/>
    </vehicle>
    <vType id="veh_08-UF2H_843" length="5.00" maxSpeed="33.00" vClass="passenger" emissionClass="HBEFA3/PC_G_EU4">
        <param key="customCO2" value="394.5036022076923"/>
    </vType>
    <vehicle id="28" type="veh_08-UF2H_843" depart="28.00">
        <route edges="-29 -2 -3 -44 -22 -23 4"/>
    </vehicle>
    <vType id="EEK11C_549" length="5.00" maxSpeed="33.00" vClass="passenger" emissionClass="HBEFA3/PC_G_EU4">
        <param key="customCO2" value="153.6335933"/>
    </vType>
    <vehicle id="29" type="EEK11C_549" depart="29.00">
        <route edges="-28 -29 1 -41 -18 28 -25 -61"/>
    </vehicle>
    <vType id="HKE589_1183" length="5.00" maxSpeed="33.00" vClass="passenger" emissionClass="HBEFA3/PC_G_EU4">
        <param key="customCO2" value="207.125"/>
    </vType>
    <vehicle id="30" type="HKE589_1183" depart="30.00">
        <route edges="8 7 6 -66 -47 80 79 78#1 78#0 77 24 23 22"/>
    </vehicle>
    <vType id="K290728_92" length="5.00" maxSpeed="33.00" vClass="passenger" emissionClass="HBEFA3/PC_G_EU4">
        <param key="customCO2" value="213.041473775"/>
    </vType>
    <vehicle id="31" type="K290728_92" depart="31.00">
        <route edges="1 -41 -18 28 -25 -61 3"/>
    </vehicle>
    <vType id="WL99204_1075" length="5.00" maxSpeed="33.00" vClass="passenger" emissionClass="HBEFA3/PC_G_EU4">
        <param key="customCO2" value="262.6746267375"/>
    </vType>
    <vehicle id="32" type="WL99204_1075" depart="32.00">
        <route edges="61 -13 16 -30 -76 -78#0 -78#1 -79 -80 47"/>
    </vehicle>
    <vType id="FPE260_1111" length="5.00" maxSpeed="33.00" vClass="passenger" emissionClass="HBEFA3/PC_G_EU4">
        <param key="customCO2" value="260.3333333333333"/>
    </vType>
    <vehicle id="33" type="FPE260_1111" depart="33.00">
        <route edges="-38 -12 -13 -14 -10 -11"/>
    </vehicle>
    <vType id="FBE-UG74_1310" length="5.00" maxSpeed="33.00" vClass="passenger" emissionClass="HBEFA3/PC_G_EU4">
        <param key="customCO2" value="345.4675465"/>
    </vType>
    <vehicle id="34" type="FBE-UG74_1310" depart="34.00">
        <route edges="-50#0 -50#1 -51 -52 -81 -60 52 51 50#1 50#0 49 80 79 78#1 78#0 77 30 -10 -11 15 -28 18 -42 -43"/>
    </vehicle>
    <vType id="TX95505_1081" length="5.00" maxSpeed="33.00" vClass="passenger" emissionClass="HBEFA3/PC_G_EU4">
        <param key="customCO2" value="210.07999999999998"/>
    </vType>
    <vehicle id="35" type="TX95505_1081" depart="35.00">
        <route edges="-32 -68 -69 4 3 2 1 0 -65 -5 75"/>
    </vehicle>
    <vType id="TD1F0GU04A1_771" length="5.00" maxSpeed="33.00" vClass="passenger" emissionClass="HBEFA3/PC_G_EU4">
        <param key="customCO2" value="237.65287815696203"/>
    </vType>
    <vehicle id="36" type="TD1F0GU04A1_771" depart="36.00">
        <route edges="66 65 -0 -1 29 28 -25 -38 -12 -13 16 -30 -76 -78#0 -78#1 -79 -80 -48 -50#0"/>
    </vehicle>
    <vType id="EC1Z1A_562" length="5.00" maxSpeed="33.00" vClass="passenger" emissionClass="HBEFA3/PC_G_EU4">
        <param key="customCO2" value="161.8655"/>
    </vType>
    <vehicle id="37" type="EC1Z1A_562" depart="37.00">
        <route edges="24 4 3 2 1 0 -65"/>
    </vehicle>
    <vType id="veh_0G93507_195" length="5.00" maxSpeed="33.00" vClass="passenger" emissionClass="HBEFA3/PC_G_EU4">
        <param key="customCO2" value="448.22"/>
    </vType>
    <vehicle id="38" type="veh_0G93507_195" depart="38.00">
        <route edges="7 6 -66 -47 80 79 78#1 78#0 77 30 -10 -11 15 -28 18 17 -74"/>
    </vehicle>
    <vType id="veh_6216Y15822_283" length="5.00" maxSpeed="33.00" vClass="passenger" emissionClass="HBEFA3/PC_G_EU4">
        <param key="customCO2" value="401.0535"/>
    </vType>
    <vehicle id="39" type="veh_6216Y15822_283" depart="39.00">
        <route edges="-43 -8 34 15 -28 -29 1 -41"/>
    </vehicle>
    <vType id="MD3N8GF73A1_624" length="5.00" maxSpeed="33.00" vClass="passenger" emissionClass="HBEFA3/PC_G_EU4">
        <param key="customCO2" value="208.555770975"/>
    </vType>
    <vehicle id="40" type="MD3N8GF73A1_624" depart="40.00">
        <route edges="15 -28 18 -42 -43"/>
    </vehicle>
    <vType id="veh_62XEKSB359_534" length="5.00" maxSpeed="33.00" vClass="passenger" emissionClass="HBEFA3/PC_G_EU4">
        <param key="customCO2" value="461.93825"/>
    </vType>
    <vehicle id="41" type="veh_62XEKSB359_534" depart="41.00">
        <route edges="17 -74 -75 -7 -8 34 -36 -38 -12 -13 16 -30 24 69"/>
    </vehicle>
    <vType id="DFDF1D_11" length="5.00" maxSpeed="33.00" vClass="passenger" emissionClass="HBEFA3/PC_G_EU4">
        <param key="customCO2" value="246.02795345833337"/>
    </vType>
    <vehicle id="42" type="DFDF1D_11" depart="42.00">
        <route edges="-65 -5 -7 -8 34 -36"/>
    </vehicle>
    <vType id="veh_201001_1406" length="5.00" maxSpeed="33.00" vClass="passenger" emissionClass="HBEFA3/PC_G_EU4">
        <param key="customCO2" value="329.8"/>
    </vType>
    <vehicle id="43" type="veh_201001_1406" depart="43.00">
        <route edges="80 79 78#1 78#0 77 -31 -58 -69 -24 -76 -78#0 -78#1 -79"/>
    </vehicle>
    <vType id="HSB053_692" length="5.00" maxSpeed="33.00" vClass="passenger" emissionClass="HBEFA3/PC_G_EU4">
        <param key="customCO2" value="207.35714285714286"/>
    </vType>
    <vehicle id="44" type="HSB053_692" depart="44.00">
        <route edges="-19 -3 61 -13"/>
    </vehicle>
    <vType id="MNE291_1132" length="5.00" maxSpeed="33.00" vClass="passenger" emissionClass="HBEFA3/PC_G_EU4">
        <param key="customCO2" value="385.6741573033708"/>
    </vType>
    <vehicle id="45" type="MNE291_1132" depart="45.00">
        <route edges="-20 62 -44 21"/>
    </vehicle>
    <vType id="HJE319_1181" length="5.00" maxSpeed="33.00" vClass="passenger" emissionClass="HBEFA3/PC_G_EU4">
        <param key="customCO2" value="209.0"/>
    </vType>
    <vehicle id="46" type="HJE319_1181" depart="46.00">
        <route edges="49 80 79 78#1 78#0 77 -31 -32 -68"/>
    </vehicle>
    <vType id="VX62501_171" length="5.00" maxSpeed="33.00" vClass="passenger" emissionClass="HBEFA3/PC_G_EU4">
        <param key="customCO2" value="195.51000000000002"/>
    </vType>
    <vehicle id="47" type="VX62501_171" depart="47.00">
        <route edges="-14 -10 -11 15 -28 -29 1 -41 -18 28 -25 -61"/>
    </vehicle>
    <vType id="EHC3-2.5-L-613_513" length="5.00" maxSpeed="33.00" vClass="passenger" emissionClass="HBEFA3/PC_G_EU4">
        <param key="customCO2" value="278.886"/>
    </vType>
    <vehicle id="48" type="EHC3-2.5-L-613_513" depart="48.00">
        <route edges="80 79 78#1 78#0 77 -31 -58 -69 -24 -76 -78#0 -78#1 -79 -80"/>
    </vehicle>
    <vType id="EFLA1C_573" length="5.00" maxSpeed="33.00" vClass="passenger" emissionClass="HBEFA3/PC_G_EU4">
        <param key="customCO2" value="231.8247309375"/>
    </vType>
    <vehicle id="49" type="EFLA1C_573" depart="49.00">
        <route edges="78#1 78#0 77 24 69 68 67 66 65"/>
    </vehicle>
    <vType id="veh_2ECPES2-018_941" length="5.00" maxSpeed="33.00" vClass="passenger" emissionClass="HBEFA3/PC_G_EU4">
        <param key="customCO2" value="205.85013066666667"/>
    </vType>
    <vehicle id="50" type="veh_2ECPES2-018_941" depart="50.00">
        <route edges="-1 29 18 -42 -43 -8 34"/>
    </vehicle>
    <vType id="DPC240_683" length="5.00" maxSpeed="33.00" vClass="passenger" emissionClass="HBEFA3/PC_G_EU4">
        <param key="customCO2" value="227.0"/>
    </vType>
    <vehicle id="51" type="DPC240_683" depart="51.00">
        <route edges="29 28 -25 -38 -12 -13 16 -30 -76 -78#0 -78#1 -79 -80 -48 -50#0 -50#1 -51 -52 -81"/>
    </vehicle>
    <vType id="veh_3A04503_1083" length="5.00" maxSpeed="33.00" vClass="passenger" emissionClass="HBEFA3/PC_G_EU4">
        <param key="customCO2" value="204.83261976923075"/>
    </vType>
    <vehicle id="52" type="veh_3A04503_1083" depart="52.00">
        <route edges="-43 -8 34 -36 -38 -12 -13 16 -30 24 23 22"/>
    </vehicle>
    <vType id="GMB013_1154" length="5.00" maxSpeed="33.00" vClass="passenger" emissionClass="HBEFA3/PC_G_EU4">
        <param key="customCO2" value="241.3781717"/>
    </vType>
    <vehicle id="53" type="GMB013_1154" depart="53.00">
        <route edges="-20 62 -4 -24 -31 -58 -69"/>
    </vehicle>
    <vehicle id="54" type="veh_3A04503_1083" depart="54.00">
        <route edges="-73 -17 41 0 -65 -66 -47 80 79 78#1 78#0"/>
    </vehicle>
    <vType id="A451E10-Z8010-1_1072" length="5.00" maxSpeed="33.00" vClass="passenger" emissionClass="HBEFA3/PC_G_EU4">
        <param key="customCO2" value="177.725"/>
    </vType>
    <vehicle id="55" type="A451E10-Z8010-1_1072" depart="55.00">
        <route edges="66 65 -0 -1 29 18 -42 -43"/>
    </vehicle>
    <vehicle id="56" type="FBE-UG74_1310" depart="56.00">
        <route edges="-78#1 -79 -80 47 66 65 -0 -1 -2 -3"/>
    </vehicle>
    <vType id="KJEG37_1177" length="5.00" maxSpeed="33.00" vClass="passenger" emissionClass="HBEFA3/PC_G_EU4">
        <param key="customCO2" value="231.0047372"/>
    </vType>
    <vehicle id="57" type="KJEG37_1177" depart="57.00">
        <route edges="7 6 -66 -47 -48 -50#0 -50#1 -51 -52 -81 -60 52 51 50#1 50#0 49 47 66"/>
    </vehicle>
    <vType id="veh_2AVP1033_819" length="5.00" maxSpeed="33.00" vClass="passenger" emissionClass="HBEFA3/PC_G_EU4">
        <param key="customCO2" value="489.51500000000004"/>
    </vType>
    <vehicle id="58" type="veh_2AVP1033_819" depart="58.00">
        <route edges="-48 -50#0 -50#1 -51 -52 -81 -60 52 51 50#1 50#0 49 80 79 78#1 78#0 77 24 23 22"/>
    </vehicle>
    <vType id="F099010_90" length="5.00" maxSpeed="33.00" vClass="passenger" emissionClass="HBEFA3/PC_G_EU4">
        <param key="customCO2" value="200.955"/>
    </vType>
    <vehicle id="59" type="F099010_90" depart="59.00">
        <route edges="2 29 28 -25"/>
    </vehicle>
    <vType id="JF6F4AU05AC_786" length="5.00" maxSpeed="33.00" vClass="passenger" emissionClass="HBEFA3/PC_G_EU4">
        <param key="customCO2" value="221.5703"/>
    </vType>
    <vehicle id="60" type="JF6F4AU05AC_786" depart="60.00">
        <route edges="43 42 41 0 -65 -66 -47 -48 -50#0 -50#1 -51 -52 -81"/>
    </vehicle>
    <vType id="C800682_132" length="5.00" maxSpeed="33.00" vClass="passenger" emissionClass="HBEFA3/PC_G_EU4">
        <param key="customCO2" value="290.13465753424657"/>
    </vType>
    <vehicle id="61" type="C800682_132" depart="61.00">
        <route edges="47 -67 33 31 -76 -78#0 -78#1 -79 -80"/>
    </vehicle>
    <vType id="veh_08-ZP1M_1354" length="5.00" maxSpeed="33.00" vClass="passenger" emissionClass="HBEFA3/PC_G_EU4">
        <param key="customCO2" value="218.2406692"/>
    </vType>
    <vehicle id="62" type="veh_08-ZP1M_1354" depart="62.00">
        <route edges="-0 -1 29 28 -25 -38 -12 -13 16 -30 -76 -78#0 -78#1 -79 -80 -48 -50#0 -50#1"/>
    </vehicle>
    <vType id="veh_201614_1429" length="5.00" maxSpeed="33.00" vClass="passenger" emissionClass="HBEFA3/PC_G_EU4">
        <param key="customCO2" value="359.69818274285717"/>
    </vType>
    <vehicle id="63" type="veh_201614_1429" depart="63.00">
        <route edges="-10 -11 15 -28 -29 1 0 -65 -5 75 74"/>
    </vehicle>
    <vType id="ED9C2C_1" length="5.00" maxSpeed="33.00" vClass="passenger" emissionClass="HBEFA3/PC_G_EU4">
        <param key="customCO2" value="184.7711111111111"/>
    </vType>
    <vehicle id="64" type="ED9C2C_1" depart="64.00">
        <route edges="67 -47 -48 -50#0 -50#1 -51 -52 -81 -60 52"/>
    </vehicle>
    <vType id="C453E09TC-Z6024_1070" length="5.00" maxSpeed="33.00" vClass="passenger" emissionClass="HBEFA3/PC_G_EU4">
        <param key="customCO2" value="198.69383333333334"/>
    </vType>
    <vehicle id="65" type="C453E09TC-Z6024_1070" depart="65.00">
        <route edges="-5 -7 -8 34 -36 -38 -12 -13 -14"/>
    </vehicle>
    <vehicle id="66" type="HSB052_697" depart="66.00">
        <route edges="66 65 -0 -1 29 28 -25 -38 -12 -13 -14 -10 46 8 7 6 -66 -47 80 79 78#1 78#0 77"/>
    </vehicle>
    <vType id="veh_3A81005_1086" length="5.00" maxSpeed="33.00" vClass="passenger" emissionClass="HBEFA3/PC_G_EU4">
        <param key="customCO2" value="220.4001940677966"/>
    </vType>
    <vehicle id="67" type="veh_3A81005_1086" depart="67.00">
        <route edges="-19 -3 -4 -24 -76 -78#0"/>
    </vehicle>
    <vType id="FBF-RH15_1296" length="5.00" maxSpeed="33.00" vClass="passenger" emissionClass="HBEFA3/PC_G_EU4">
        <param key="customCO2" value="225.64221707500002"/>
    </vType>
    <vehicle id="68" type="FBF-RH15_1296" depart="68.00">
        <route edges="-17 41 0 -73 -74 -75 -7 43"/>
    </vehicle>
    <vType id="HKB165_1184" length="5.00" maxSpeed="33.00" vClass="passenger" emissionClass="HBEFA3/PC_G_EU4">
        <param key="customCO2" value="194.0"/>
    </vType>
    <vehicle id="69" type="HKB165_1184" depart="69.00">
        <route edges="43 42 -18 28 -25 -61 -44 -22"/>
    </vehicle>
    <vType id="veh_07-GL2A_1359" length="5.00" maxSpeed="33.00" vClass="passenger" emissionClass="HBEFA3/PC_G_EU4">
        <param key="customCO2" value="327.25148005"/>
    </vType>
    <vehicle id="70" type="veh_07-GL2A_1359" depart="70.00">
        <route edges="-75 -7 43 42 41 0"/>
    </vehicle>
    <vType id="D3UB-CAQ_27" length="5.00" maxSpeed="33.00" vClass="passenger" emissionClass="HBEFA3/PC_G_EU4">
        <param key="customCO2" value="354.2"/>
    </vType>
    <vehicle id="71" type="D3UB-CAQ_27" depart="71.00">
        <route edges="-43 -8 34 -36 -38 -12 -13 16 -30 -76 -78#0 -78#1 -79 -80 47 66"/>
    </vehicle>
    <vehicle id="72" type="HSB051_696" depart="72.00">
        <route edges="-68 -69 -24 -31 -32"/>
    </vehicle>
    <vType id="T739201_1078" length="5.00" maxSpeed="33.00" vClass="passenger" emissionClass="HBEFA3/PC_G_EU4">
        <param key="customCO2" value="206.085"/>
    </vType>
    <vehicle id="73" type="T739201_1078" depart="73.00">
        <route edges="-81 -60 52 51 50#1 50#0 49 80 79 78#1 78#0 77 24 4"/>
    </vehicle>
    <vType id="EB16-ZA42_931" length="5.00" maxSpeed="33.00" vClass="passenger" emissionClass="HBEFA3/PC_G_EU4">
        <param key="customCO2" value="247.63574568888887"/>
    </vType>
    <vehicle id="74" type="EB16-ZA42_931" depart="74.00">
        <route edges="-31 -58 -69 -24 -76 -78#0 -78#1 -79 -80 -48 -50#0"/>
    </vehicle>
    <vehicle id="75" type="JF6F4AU05AC_786" depart="75.00">
        <route edges="80 79 78#1 78#0 77 24 23"/>
    </vehicle>
    <vType id="CLE230_1140" length="5.00" maxSpeed="33.00" vClass="passenger" emissionClass="HBEFA3/PC_G_EU4">
        <param key="customCO2" value="309.5"/>
    </vType>
    <vehicle id="76" type="CLE230_1140" depart="76.00">
        <route edges="-69 -24 30 -10 -11 15 -28 18 -42 -43 -8"/>
    </vehicle>
    <vType id="veh_37XESP9600_314" length="5.00" maxSpeed="33.00" vClass="passenger" emissionClass="HBEFA3/PC_G_EU4">
        <param key="customCO2" value="402.1725"/>
    </vType>
    <vehicle id="77" type="veh_37XESP9600_314" depart="77.00">
        <route edges="-21 -22 -23 -24 30 -10 -11 -36 -38"/>
    </vehicle>
    <vType id="E6NA1A_566" length="5.00" maxSpeed="33.00" vClass="passenger" emissionClass="HBEFA3/PC_G_EU4">
        <param key="customCO2" value="217.15020105"/>
    </vType>
    <vehicle id="78" type="E6NA1A_566" depart="78.00">
        <route edges="-52 -81 -60 52 51 50#1 50#0 49 80 79 78#1 78#0 77 30 -10 -11 15 -28 18 17"/>
    </vehicle>
    <vType id="FPB063_1108" length="5.00" maxSpeed="33.00" vClass="passenger" emissionClass="HBEFA3/PC_G_EU4">
        <param key="customCO2" value="207.64289387083332"/>
    </vType>
    <vehicle id="79" type="FPB063_1108" depart="79.00">
        <route edges="-38 -12 -13 -14 -10 -11 -36"/>
    </vehicle>
    <vehicle id="80" type="veh_11-ZA1H_820" depart="80.00">
        <route edges="-17 -18 28 -25 -61 -44 21"/>
    </vehicle>
    <vType id="L5FBB0722_433" length="5.00" maxSpeed="33.00" vClass="passenger" emissionClass="HBEFA3/PC_G_EU4">
        <param key="customCO2" value="230.50833749999998"/>
    </vType>
    <vehicle id="81" type="L5FBB0722_433" depart="81.00">
        <route edges="-38 -12 -13 16 -30 24 69"/>
    </vehicle>
    <vType id="HRE748_695" length="5.00" maxSpeed="33.00" vClass="passenger" emissionClass="HBEFA3/PC_G_EU4">
        <param key="customCO2" value="308.25"/>
    </vType>
    <vehicle id="82" type="HRE748_695" depart="82.00">
        <route edges="62 3 2 1 0 -73 -17"/>
    </vehicle>
    <vType id="EL100003_487" length="5.00" maxSpeed="33.00" vClass="passenger" emissionClass="HBEFA3/PC_G_EU4">
        <param key="customCO2" value="213.54475000000002"/>
    </vType>
    <vehicle id="83" type="EL100003_487" depart="83.00">
        <route edges="-4 23 22 21 20 19 28"/>
    </vehicle>
    <vType id="C204E35DEH-Z2018-3_957" length="5.00" maxSpeed="33.00" vClass="passenger" emissionClass="HBEFA3/PC_G_EU4">
        <param key="customCO2" value="298.365"/>
    </vType>
    <vehicle id="84" type="C204E35DEH-Z2018-3_957" depart="84.00">
        <route edges="-32 -68 -69 4 -44 -22 -23"/>
    </vehicle>
    <vType id="F099010_91" length="5.00" maxSpeed="33.00" vClass="passenger" emissionClass="HBEFA3/PC_G_EU4">
        <param key="customCO2" value="213.9175"/>
    </vType>
    <vehicle id="85" type="F099010_91" depart="85.00">
        <route edges="75 -59 -43 -8 34 -36 -38 -12 -13 16"/>
    </vehicle>
    <vType id="JK2N8GF01A1_625" length="5.00" maxSpeed="33.00" vClass="passenger" emissionClass="HBEFA3/PC_G_EU4">
        <param key="customCO2" value="201.41950526666668"/>
    </vType>
    <vehicle id="86" type="JK2N8GF01A1_625" depart="86.00">
        <route edges="-75 -7 -8 34 -36 -38 -12 -13 16 -30 -76 -78#0 -78#1 -79 -80 47"/>
    </vehicle>
    <vType id="veh_2515279363_309" length="5.00" maxSpeed="33.00" vClass="passenger" emissionClass="HBEFA3/PC_G_EU4">
        <param key="customCO2" value="321.1095625"/>
    </vType>
    <vehicle id="87" type="veh_2515279363_309" depart="87.00">
        <route edges="50#1 50#0 49 80 79 78#1 78#0 77 30 -10 -11 -36 -38 -12 -13 16 -30"/>
    </vehicle>
    <vType id="HTF3FUP110A_783" length="5.00" maxSpeed="33.00" vClass="passenger" emissionClass="HBEFA3/PC_G_EU4">
        <param key="customCO2" value="175.01415"/>
    </vType>
    <vehicle id="88" type="HTF3FUP110A_783" depart="88.00">
        <route edges="-2 -3 -4 -24 -31 -58 -69"/>
    </vehicle>
    <vType id="AWE503_1168" length="5.00" maxSpeed="33.00" vClass="passenger" emissionClass="HBEFA3/PC_G_EU4">
        <param key="customCO2" value="225.41666666666666"/>
    </vType>
    <vehicle id="89" type="AWE503_1168" depart="89.00">
        <route edges="-68 -69 -24 30 -10 -11 15 -28 18 17 -74"/>
    </vehicle>
    <vehicle id="90" type="GMB013_1154" depart="90.00">
        <route edges="4 3 2 29"/>
    </vehicle>
    <vType id="EC5A1A_574" length="5.00" maxSpeed="33.00" vClass="passenger" emissionClass="HBEFA3/PC_G_EU4">
        <param key="customCO2" value="261.24"/>
    </vType>
    <vehicle id="91" type="EC5A1A_574" depart="91.00">
        <route edges="8 7 6 -66 -47 80 79 78#1 78#0 77 30 -10 -11 15 -28 -29 -2"/>
    </vehicle>
    <vType id="KJEG38_1180" length="5.00" maxSpeed="33.00" vClass="passenger" emissionClass="HBEFA3/PC_G_EU4">
        <param key="customCO2" value="211.33333333333334"/>
    </vType>
    <vehicle id="92" type="KJEG38_1180" depart="92.00">
        <route edges="-66 -47 -48 -50#0 -50#1 -51 -52"/>
    </vehicle>
    <vType id="veh_144HV712DA_343" length="5.00" maxSpeed="33.00" vClass="passenger" emissionClass="HBEFA3/PC_G_EU4">
        <param key="customCO2" value="216.0176754261905"/>
    </vType>
    <vehicle id="93" type="veh_144HV712DA_343" depart="93.00">
        <route edges="65 -0 -1 29 -19 2 1 -41"/>
    </vehicle>
    <vType id="SRE417_1123" length="5.00" maxSpeed="33.00" vClass="passenger" emissionClass="HBEFA3/PC_G_EU4">
        <param key="customCO2" value="310.0"/>
    </vType>
    <vehicle id="94" type="SRE417_1123" depart="94.00">
        <route edges="-30 24 4 3 2 1 0 -73"/>
    </vehicle>
    <vType id="veh_14-ZE1C_1326" length="5.00" maxSpeed="33.00" vClass="passenger" emissionClass="HBEFA3/PC_G_EU4">
        <param key="customCO2" value="184.76375742222223"/>
    </vType>
    <vehicle id="95" type="veh_14-ZE1C_1326" depart="95.00">
        <route edges="-68 -69 4 -44"/>
    </vehicle>
    <vType id="veh_0C06535_197" length="5.00" maxSpeed="33.00" vClass="passenger" emissionClass="HBEFA3/PC_G_EU4">
        <param key="customCO2" value="318.9871428571428"/>
    </vType>
    <vehicle id="96" type="veh_0C06535_197" depart="96.00">
        <route edges="-41 17 73"/>
    </vehicle>