<routes xmlns:xsi="http://www.w3.org/2001/XMLSchema-instance" xsi:noNamespaceSchemaLocation="http://sumo.dlr.de/xsd/routes_file.xsd">
    <trip id="0" depart="0.00" from="22" to="-10" type="veh_361_730_136_13_1384" />
    <trip id="1" depart="1.00" from="-44" to="-36" type="C117E20DETC-Z5021-3_970" />
    <trip id="2" depart="2.00" from="4" to="29" type="veh_2ECPE31-012_940" />
    <trip id="3" depart="3.00" from="68" to="-19" type="V221DE30TC-Z3856_1048" />
    <trip id="4" depart="4.00" from="-68" to="-11" type="veh_3ETTP008_873" />
    <trip id="5" depart="5.00" from="-36" to="-79" type="EG1M1C_592" />
    <trip id="6" depart="6.00" from="-10" to="-31" type="C994902_131" />
    <trip id="7" depart="7.00" from="23" to="0" type="DPE438_702" />
    <trip id="8" depart="8.00" from="-36" to="18" type="QF2F4AU02A1_781" />
    <trip id="9" depart="9.00" from="50#1" to="-0" type="FB71-3.5-F-586_455" />
    <trip id="10" depart="10.00" from="50#1" to="30" type="veh_20P5094_1271" />
    <trip id="11" depart="11.00" from="-52" to="-25" type="veh_206GKE4204_249" />
    <trip id="12" depart="12.00" from="78#0" to="-52" type="GTH1-3.5-J-690_511" />
    <trip id="13" depart="13.00" from="-19" to="-2" type="veh_16X5HV553A_289" />
    <trip id="14" depart="14.00" from="61" to="19" type="HSB052_697" />
    <trip id="15" depart="15.00" from="50#1" to="4" type="EB16-CB7A_925" />
    <trip id="16" depart="16.00" from="-81" to="79" type="veh_11-ZA1H_820" />
    <trip id="17" depart="17.00" from="-61" to="1" type="veh_3ETTP008_873" />
    <trip id="18" depart="18.00" from="52" to="20" type="C117E20DETC-Z4022_969" />
    <trip id="19" depart="19.00" from="65" to="16" type="veh_10EDV-1_1317" />
    <trip id="20" depart="20.00" from="31" to="-12" type="MLE353_672" />
    <trip id="21" depart="21.00" from="-38" to="-47" type="veh_4ECPE31-029_909" />
    <trip id="22" depart="22.00" from="-18" to="-38" type="WH97510_1096" />
    <trip id="23" depart="23.00" from="-2" to="-44" type="HSB051_696" />
    <trip id="24" depart="24.00" from="22" to="-60" type="FKB337_1106" />
    <trip id="25" depart="25.00" from="-60" to="-32" type="W212DE22TC-Z4010-1_979" />
    <trip id="26" depart="26.00" from="-43" to="75" type="KPE537_1174" />
    <trip id="27" depart="27.00" from="23" to="2" type="LY63000_203" />
    <trip id="28" depart="28.00" from="-29" to="4" type="veh_08-UF2H_843" />
    <trip id="29" depart="29.00" from="-28" to="-61" type="EEK11C_549" />
    <trip id="30" depart="30.00" from="8" to="22" type="HKE589_1183" />
    <trip id="31" depart="31.00" from="1" to="3" type="K290728_92" />
    <trip id="32" depart="32.00" from="61" to="47" type="WL99204_1075" />
    <trip id="33" depart="33.00" from="-38" to="-11" type="FPE260_1111" />
    <trip id="34" depart="34.00" from="-50#0" to="-43" type="FBE-UG74_1310" />
    <trip id="35" depart="35.00" from="-32" to="75" type="TX95505_1081" />
    <trip id="36" depart="36.00" from="66" to="-50#0" type="TD1F0GU04A1_771" />
    <trip id="37" depart="37.00" from="24" to="-65" type="EC1Z1A_562" />
    <trip id="38" depart="38.00" from="7" to="-74" type="veh_0G93507_195" />
    <trip id="39" depart="39.00" from="-43" to="-41" type="veh_6216Y15822_283" />
    <trip id="40" depart="40.00" from="15" to="-43" type="MD3N8GF73A1_624" />
    <trip id="41" depart="41.00" from="17" to="69" type="veh_62XEKSB359_534" />
    <trip id="42" depart="42.00" from="-65" to="-36" type="DFDF1D_11" />
    <trip id="43" depart="43.00" from="80" to="-79" type="veh_201001_1406" />
    <trip id="44" depart="44.00" from="-19" to="-13" type="HSB053_692" />
    <trip id="45" depart="45.00" from="-20" to="21" type="MNE291_1132" />
    <trip id="46" depart="46.00" from="49" to="-68" type="HJE319_1181" />
    <trip id="47" depart="47.00" from="-14" to="-61" type="VX62501_171" />
    <trip id="48" depart="48.00" from="80" to="-80" type="EHC3-2.5-L-613_513" />
    <trip id="49" depart="49.00" from="78#1" to="65" type="EFLA1C_573" />
    <trip id="50" depart="50.00" from="-1" to="34" type="veh_2ECPES2-018_941" />
    <trip id="51" depart="51.00" from="29" to="-81" type="DPC240_683" />
    <trip id="52" depart="52.00" from="-43" to="22" type="veh_3A04503_1083" />
    <trip id="53" depart="53.00" from="-20" to="-69" type="GMB013_1154" />
    <trip id="54" depart="54.00" from="-73" to="78#0" type="veh_3A04503_1083" />
    <trip id="55" depart="55.00" from="66" to="-43" type="A451E10-Z8010-1_1072" />
    <trip id="56" depart="56.00" from="-78#1" to="-3" type="FBE-UG74_1310" />
    <trip id="57" depart="57.00" from="7" to="66" type="KJEG37_1177" />
    <trip id="58" depart="58.00" from="-48" to="22" type="veh_2AVP1033_819" />
    <trip id="59" depart="59.00" from="2" to="-25" type="F099010_90" />
    <trip id="60" depart="60.00" from="43" to="-81" type="JF6F4AU05AC_786" />
    <trip id="61" depart="61.00" from="47" to="-80" type="C800682_132" />
    <trip id="62" depart="62.00" from="-0" to="-50#1" type="veh_08-ZP1M_1354" />
    <trip id="63" depart="63.00" from="-10" to="74" type="veh_201614_1429" />
    <trip id="64" depart="64.00" from="67" to="52" type="ED9C2C_1" />
    <trip id="65" depart="65.00" from="-5" to="-14" type="C453E09TC-Z6024_1070" />
    <trip id="66" depart="66.00" from="66" to="77" type="HSB052_697" />
    <trip id="67" depart="67.00" from="-19" to="-78#0" type="veh_3A81005_1086" />
    <trip id="68" depart="68.00" from="-17" to="43" type="FBF-RH15_1296" />
    <trip id="69" depart="69.00" from="43" to="-22" type="HKB165_1184" />
    <trip id="70" depart="70.00" from="-75" to="0" type="veh_07-GL2A_1359" />
    <trip id="71" depart="71.00" from="-43" to="66" type="D3UB-CAQ_27" />
    <trip id="72" depart="72.00" from="-68" to="-32" type="HSB051_696" />
    <trip id="73" depart="73.00" from="-81" to="4" type="T739201_1078" />
    <trip id="74" depart="74.00" from="-31" to="-50#0" type="EB16-ZA42_931" />
    <trip id="75" depart="75.00" from="80" to="23" type="JF6F4AU05AC_786" />
    <trip id="76" depart="76.00" from="-69" to="-8" type="CLE230_1140" />
    <trip id="77" depart="77.00" from="-21" to="-38" type="veh_37XESP9600_314" />
    <trip id="78" depart="78.00" from="-52" to="17" type="E6NA1A_566" />
    <trip id="79" depart="79.00" from="-38" to="-36" type="FPB063_1108" />
    <trip id="80" depart="80.00" from="-17" to="21" type="veh_11-ZA1H_820" />
    <trip id="81" depart="81.00" from="-38" to="69" type="L5FBB0722_433" />
    <trip id="82" depart="82.00" from="62" to="-17" type="HRE748_695" />
    <trip id="83" depart="83.00" from="-4" to="28" type="EL100003_487" />
    <trip id="84" depart="84.00" from="-32" to="-23" type="C204E35DEH-Z2018-3_957" />
    <trip id="85" depart="85.00" from="75" to="16" type="F099010_91" />
    <trip id="86" depart="86.00" from="-75" to="47" type="JK2N8GF01A1_625" />
    <trip id="87" depart="87.00" from="50#1" to="-30" type="veh_2515279363_309" />
    <trip id="88" depart="88.00" from="-2" to="-69" type="HTF3FUP110A_783" />
    <trip id="89" depart="89.00" from="-68" to="-74" type="AWE503_1168" />
    <trip id="90" depart="90.00" from="4" to="29" type="GMB013_1154" />
    <trip id="91" depart="91.00" from="8" to="-2" type="EC5A1A_574" />
    <trip id="92" depart="92.00" from="-66" to="-52" type="KJEG38_1180" />
    <trip id="93" depart="93.00" from="65" to="-41" type="veh_144HV712DA_343" />
    <trip id="94" depart="94.00" from="-30" to="-73" type="SRE417_1123" />
    <trip id="95" depart="95.00" from="-68" to="-44" type="veh_14-ZE1C_1326" />
    <trip id="96" depart="96.00" from="-41" to="73" type="veh_0C06535_197" />
    <trip id="97" depart="97.00" from="-7" to="65" type="MD4N8GF01A1_649" />
    <trip id="98" depart="98.00" from="0" to="-13" type="C593806_126" />
    <trip id="99" depart="99.00" from="80" to="6" type="A451E10-Z8010_1071" />
    <trip id="100" depart="100.00" from="78#1" to="74" type="veh_14-ZE1C_1326" />
    <trip id="101" depart="101.00" from="61" to="-28" type="veh_221941181_269" />
    <trip id="102" depart="102.00" from="-76" to="-32" type="AWE318_1172" />
    <trip id="103" depart="103.00" from="-65" to="-14" type="veh_37XESP9600_312" />
    <trip id="104" depart="104.00" from="-61" to="8" type="C453E09TC-Z6024_1070" />
    <trip id="105" depart="105.00" from="-43" to="47" type="L4BFF8525_432" />
    <trip id="106" depart="106.00" from="-73" to="-68" type="STB321_1189" />
    <trip id="107" depart="107.00" from="78#0" to="80" type="veh_16-AA2H_1350" />
    <trip id="108" depart="108.00" from="1" to="33" type="EBTW1C_580" />
    <trip id="109" depart="109.00" from="-25" to="-48" type="AM2N0GF11A1_796" />
    <trip id="110" depart="110.00" from="78#1" to="16" type="veh_2418Z46934_284" />
    <trip id="111" depart="111.00" from="0" to="42" type="EFLA1C_573" />
    <trip id="112" depart="112.00" from="-14" to="17" type="veh_14-GE4A_833" />
    <trip id="113" depart="113.00" from="-78#1" to="62" type="GAUA-GRM_1380" />
    <trip id="114" depart="114.00" from="-25" to="78#0" type="KJEG38_1180" />
    <trip id="115" depart="115.00" from="-18" to="-3" type="veh_2026M17534_1198" />
    <trip id="116" depart="116.00" from="18" to="29" type="PLF5NAUP11A_641" />
    <trip id="117" depart="117.00" from="-4" to="-21" type="EE1J1M_556" />
    <trip id="118" depart="118.00" from="68" to="-41" type="veh_3EFPE31-004_937" />
    <trip id="119" depart="119.00" from="18" to="20" type="MD1N8GF29A1_623" />
    <trip id="120" depart="120.00" from="-67" to="17" type="AM2N0GF11A1_796" />
    <trip id="121" depart="121.00" from="-8" to="75" type="veh_7R31-4.0-L-653_411" />
    <trip id="122" depart="122.00" from="-31" to="33" type="KPB086_1170" />
    <trip id="123" depart="123.00" from="-4" to="-65" type="veh_12-NP1H_1344" />
    <trip id="124" depart="124.00" from="28" to="-5" type="KPE537_1174" />
    <trip id="125" depart="125.00" from="-50#0" to="42" type="veh_2488LN8043_1285" />
    <trip id="126" depart="126.00" from="-17" to="-74" type="veh_6216Y15822_283" />
    <trip id="127" depart="127.00" from="80" to="80" type="veh_351_00031_10_1403" />
    <trip id="128" depart="128.00" from="-17" to="-32" type="FBF-VC14_1301" />
    <trip id="129" depart="129.00" from="-43" to="74" type="JK2N8GF01A1_625" />
    <trip id="130" depart="130.00" from="67" to="67" type="V6ND15059_380" />
    <trip id="131" depart="131.00" from="-60" to="-25" type="VW370_50379__15_1393" />
    <trip id="132" depart="132.00" from="6" to="31" type="DME679_682" />
    <trip id="133" depart="133.00" from="2" to="8" type="DR100015_497" />
    <trip id="134" depart="134.00" from="23" to="-0" type="LK25003_211" />
    <trip id="135" depart="135.00" from="51" to="-5" type="veh_201311_1428" />
    <trip id="136" depart="136.00" from="24" to="75" type="EC5A3A_571" />
    <trip id="137" depart="137.00" from="-23" to="-21" type="FS6R6AU01AC_646" />
    <trip id="138" depart="138.00" from="-20" to="1" type="MC0D6U04A1_618" />
    <trip id="139" depart="139.00" from="-44" to="19" type="veh_361_730_136_13_1384" />
    <trip id="140" depart="140.00" from="33" to="-31" type="BKA00062_472" />
    <trip id="141" depart="141.00" from="21" to="-43" type="HLF6NAUP11A_639" />
    <trip id="142" depart="142.00" from="-78#0" to="69" type="AM71-2.5-C-947_918" />
    <trip id="143" depart="143.00" from="61" to="-19" type="QF2F4AU02A1_781" />
    <trip id="144" depart="144.00" from="-68" to="-44" type="EBTW1C_580" />
    <trip id="145" depart="145.00" from="-0" to="46" type="KHC863_1134" />
    <trip id="146" depart="146.00" from="22" to="-43" type="L4WKJ4240_761" />
    <trip id="147" depart="147.00" from="41" to="1" type="P157025_109" />
    <trip id="148" depart="148.00" from="-68" to="-1" type="FLB106_1114" />
    <trip id="149" depart="149.00" from="-18" to="67" type="veh_12-ZW2H_1345" />
    <trip id="150" depart="150.00" from="69" to="0" type="MD4N0AU17A2_647" />
    <trip id="151" depart="151.00" from="6" to="17" type="GMB013_1154" />
    <trip id="152" depart="152.00" from="-24" to="-22" type="veh_201411_1424" />
    <trip id="153" depart="153.00" from="-5" to="69" type="JLB049_1142" />
    <trip id="154" depart="154.00" from="50#0" to="65" type="AU373-6-0813_16_18" />
    <trip id="155" depart="155.00" from="69" to="-32" type="HJE320_1182" />
    <trip id="156" depart="156.00" from="-41" to="-2" type="EGBB1M_558" />
    <trip id="157" depart="157.00" from="47" to="67" type="veh_0E95003_188" />
    <trip id="158" depart="158.00" from="-66" to="20" type="veh_361_730_136_13_1384" />
    <trip id="159" depart="159.00" from="-25" to="74" type="X156E20DETC-Z5021-2_1018" />
    <trip id="160" depart="160.00" from="65" to="79" type="EG1M1C_592" />
    <trip id="161" depart="161.00" from="50#1" to="67" type="veh_201608_1414" />
    <trip id="162" depart="162.00" from="-10" to="4" type="veh_12-NP1H_1344" />
    <trip id="163" depart="163.00" from="-51" to="74" type="CDH1-0.0-L-346_485" />
    <trip id="164" depart="164.00" from="50#0" to="65" type="EC1Z1A_562" />
    <trip id="165" depart="165.00" from="50#1" to="-43" type="veh_1444J61466_352" />
    <trip id="166" depart="166.00" from="49" to="-20" type="veh_12-NP1A_1374" />
    <trip id="167" depart="167.00" from="66" to="62" type="VW351_780169_09_1382" />
    <trip id="168" depart="168.00" from="-36" to="51" type="veh_11-NJ1C_1288" />
    <trip id="169" depart="169.00" from="-74" to="-5" type="veh_12-ZW2H_1345" />
    <trip id="170" depart="170.00" from="50#0" to="-38" type="F132_436" />
    <trip id="171" depart="171.00" from="-10" to="-30" type="EB421M_551" />
    <trip id="172" depart="172.00" from="-51" to="65" type="R197E63-Z1023-1_1068" />
    <trip id="173" depart="173.00" from="78#1" to="-44" type="AWE319_1191" />
    <trip id="174" depart="174.00" from="22" to="-65" type="KHC863_1134" />
    <trip id="175" depart="175.00" from="79" to="-81" type="HKE589_1183" />
    <trip id="176" depart="176.00" from="75" to="-21" type="veh_16X5HV553A_289" />
    <trip id="177" depart="177.00" from="78#1" to="-3" type="veh_12-ZW2H_1345" />
    <trip id="178" depart="178.00" from="78#0" to="-43" type="HRE758_716" />
    <trip id="179" depart="179.00" from="-20" to="-69" type="T826907_1084" />
    <trip id="180" depart="180.00" from="34" to="-50#0" type="EGBB1C_560" />
    <trip id="181" depart="181.00" from="19" to="-79" type="F099010_90" />
    <trip id="182" depart="182.00" from="-62" to="16" type="FBF-RH15_1296" />
    <trip id="183" depart="183.00" from="-42" to="31" type="veh_2B27706_1085" />
    <trip id="184" depart="184.00" from="-0" to="74" type="CBF-GJ15_1299" />
    <trip id="185" depart="185.00" from="-81" to="33" type="EM100153_491" />
    <trip id="186" depart="186.00" from="41" to="28" type="TD1F0GU09A1_772" />
    <trip id="187" depart="187.00" from="-59" to="-17" type="PPE437_1117" />
    <trip id="188" depart="188.00" from="28" to="-51" type="AWE502_1166" />
    <trip id="189" depart="189.00" from="-50#0" to="61" type="EGBB1M_558" />
    <trip id="190" depart="190.00" from="34" to="-5" type="veh_201607_1430" />
    <trip id="191" depart="191.00" from="-50#0" to="-66" type="C117E20DETC-Z5021-3_970" />
    <trip id="192" depart="192.00" from="-66" to="-48" type="veh_12-AV1H_1328" />
    <trip id="193" depart="193.00" from="-22" to="-67" type="EGBB1C_560" />
    <trip id="194" depart="194.00" from="75" to="29" type="EGAA1C_559" />
    <trip id="195" depart="195.00" from="69" to="2" type="S212E55DETC-Z2023-5_1010" />
    <trip id="196" depart="196.00" from="-5" to="0" type="BTE698_1160" />
    <trip id="197" depart="197.00" from="-0" to="-47" type="EG1M1C_592" />
    <trip id="198" depart="198.00" from="-68" to="17" type="veh_16-ZE1M_1287" />
    <trip id="199" depart="199.00" from="24" to="-74" type="veh_201213_1416" />
    <trip id="200" depart="200.00" from="-7" to="-32" type="GGA00064_464" />
    <trip id="201" depart="201.00" from="-75" to="69" type="YD4R6AU10B1_777" />
    <trip id="202" depart="202.00" from="50#0" to="-29" type="UB3R6AU15A1_792" />
    <trip id="203" depart="203.00" from="-19" to="-8" type="veh_1412P03137_316" />
    <trip id="204" depart="204.00" from="21" to="-51" type="veh_9FP1-4.6-H-891_862" />
    <trip id="205" depart="205.00" from="51" to="42" type="C994902_131" />
    <trip id="206" depart="206.00" from="28" to="-38" type="MC0D6U04A1_618" />
    <trip id="207" depart="207.00" from="-31" to="-10" type="EB401A_554" />
    <trip id="208" depart="208.00" from="-41" to="-75" type="EE1J1M_556" />
    <trip id="209" depart="209.00" from="61" to="-17" type="veh_10-AF1H_830" />
    <trip id="210" depart="210.00" from="-67" to="21" type="HSB052_697" />
    <trip id="211" depart="211.00" from="-30" to="30" type="W205E20DETC-Z6029_959" />
    <trip id="212" depart="212.00" from="-78#0" to="-41" type="AU641_40848__15_31" />
    <trip id="213" depart="213.00" from="24" to="-0" type="MC0D6U04A1_618" />
    <trip id="214" depart="214.00" from="42" to="46" type="T739201_1078" />
    <trip id="215" depart="215.00" from="-20" to="-68" type="SJE208_1196" />
    <trip id="216" depart="216.00" from="-29" to="78#0" type="FE-Spyder-M6_1240" />
    <trip id="217" depart="217.00" from="-8" to="-13" type="veh_16-GL3H_853" />
    <trip id="218" depart="218.00" from="-41" to="61" type="veh_60XEGCA050_326" />
    <trip id="219" depart="219.00" from="-73" to="50#0" type="veh_6ECP5V31-007_908" />
    <trip id="220" depart="220.00" from="28" to="8" type="S212E30DETC-Z5010-2_998" />
    <trip id="221" depart="221.00" from="18" to="77" type="EEK11C_549" />
    <trip id="222" depart="222.00" from="68" to="2" type="veh_3EFPE31-004_937" />
    <trip id="223" depart="223.00" from="33" to="-79" type="C190E40DETC-Z6013_950" />
    <trip id="224" depart="224.00" from="52" to="0" type="SEE591_1145" />
    <trip id="225" depart="225.00" from="69" to="41" type="veh_16X5HV553A_277" />
    <trip id="226" depart="226.00" from="-75" to="-42" type="C453E09TC-Z6024_1070" />
    <trip id="227" depart="227.00" from="-41" to="22" type="AWE318_1172" />
    <trip id="228" depart="228.00" from="43" to="-8" type="FE-981S-M6-13_1229" />
    <trip id="229" depart="229.00" from="21" to="-44" type="veh_201608_1414" />
    <trip id="230" depart="230.00" from="-18" to="-47" type="veh_36Z9L19796_1286" />
    <trip id="231" depart="231.00" from="-44" to="-50#1" type="MD4N0AU17A2_647" />
    <trip id="232" depart="232.00" from="-81" to="-23" type="KJEG38_1180" />
    <trip id="233" depart="233.00" from="-38" to="30" type="C451E10-Z2027_1073" />
    <trip id="234" depart="234.00" from="31" to="-14" type="C117E20DETC-Z5021-3_970" />
    <trip id="235" depart="235.00" from="-66" to="0" type="veh_2AVP1032_816" />
    <trip id="236" depart="236.00" from="-67" to="-32" type="veh_2418Z46934_284" />
    <trip id="237" depart="237.00" from="-67" to="69" type="L5FBB0722_433" />
    <trip id="238" depart="238.00" from="17" to="30" type="veh_16-GL1H_854" />
    <trip id="239" depart="239.00" from="62" to="43" type="EGBB1C_560" />
    <trip id="240" depart="240.00" from="-61" to="-0" type="T384700_1077" />
    <trip id="241" depart="241.00" from="-58" to="42" type="CBE-DK14_1295" />
    <trip id="242" depart="242.00" from="62" to="78#0" type="L5ND14804_379" />
    <trip id="243" depart="243.00" from="-67" to="41" type="veh_2488LP8032_1282" />
    <trip id="244" depart="244.00" from="0" to="19" type="E6NA1A_566" />
    <trip id="245" depart="245.00" from="-36" to="-36" type="C451E10-Z2027_1073" />
    <trip id="246" depart="246.00" from="-69" to="-11" type="PPE437_1117" />
    <trip id="247" depart="247.00" from="-51" to="29" type="veh_11-NJ1C_1288" />
    <trip id="248" depart="248.00" from="-66" to="-28" type="veh_36Z9L19796_1286" />
    <trip id="249" depart="249.00" from="-75" to="-22" type="UB3R6AU15A1_792" />
    <trip id="250" depart="250.00" from="20" to="-10" type="FX99511_85" />
    <trip id="251" depart="251.00" from="-65" to="15" type="STE248_1157" />
    <trip id="252" depart="252.00" from="-10" to="22" type="A451E10-Z8010_1071" />
    <trip id="253" depart="253.00" from="-23" to="-74" type="T996307_1080" />
    <trip id="254" depart="254.00" from="-13" to="-61" type="MC0D6U04A1_618" />
    <trip id="255" depart="255.00" from="-32" to="-50#1" type="YD3N8GF23A1_776" />
    <trip id="256" depart="256.00" from="43" to="-61" type="GMB013_1155" />
    <trip id="257" depart="257.00" from="42" to="6" type="KJB441_1179" />
    <trip id="258" depart="258.00" from="-41" to="-18" type="EB16-CB7A_925" />
    <trip id="259" depart="259.00" from="-10" to="-81" type="D001500_128" />
    <trip id="260" depart="260.00" from="80" to="-58" type="UB3R6AU13A1_791" />
    <trip id="261" depart="261.00" from="23" to="47" type="V3MKT2306_764" />
    <trip id="262" depart="262.00" from="23" to="42" type="WH94501_1087" />
    <trip id="263" depart="263.00" from="77" to="-31" type="C218E30DETC-Z5010-3_972" />
    <trip id="264" depart="264.00" from="-10" to="-25" type="LXEVP084_875" />
    <trip id="265" depart="265.00" from="-22" to="28" type="veh_351_00031_10_1403" />
    <trip id="266" depart="266.00" from="15" to="-36" type="AM2N0GF11A1_796" />
    <trip id="267" depart="267.00" from="30" to="46" type="T891600_1092" />
    <trip id="268" depart="268.00" from="-28" to="19" type="UB2R6AU11A1_788" />
    <trip id="269" depart="269.00" from="42" to="-21" type="X166E30DETC-Z5018-1_1015" />
    <trip id="270" depart="270.00" from="51" to="78#1" type="L2FFF1237_431" />
    <trip id="271" depart="271.00" from="-20" to="-10" type="HKE589_1183" />
    <trip id="272" depart="272.00" from="-50#0" to="29" type="ECFE-981GTS-MT-15_1239" />
    <trip id="273" depart="273.00" from="78#0" to="-65" type="AWE318_1172" />
    <trip id="274" depart="274.00" from="33" to="-18" type="EE9S1A_8" />
    <trip id="275" depart="275.00" from="3" to="21" type="ER317196_495" />
    <trip id="276" depart="276.00" from="-2" to="46" type="HSB052_697" />
    <trip id="277" depart="277.00" from="61" to="19" type="AM71-2.5-C-947_918" />
    <trip id="278" depart="278.00" from="-21" to="8" type="EFLA1C_573" />
    <trip id="279" depart="279.00" from="47" to="-58" type="veh_3949HN8000_220" />
    <trip id="280" depart="280.00" from="-68" to="-60" type="veh_1EYV2610_315" />
    <trip id="281" depart="281.00" from="-79" to="-52" type="veh_351_00031_10_1403" />
    <trip id="282" depart="282.00" from="61" to="51" type="EFR71C_588" />
    <trip id="283" depart="283.00" from="-20" to="78#0" type="veh_3A91004_1094" />
    <trip id="284" depart="284.00" from="22" to="52" type="veh_53XECSE012_337" />
    <trip id="285" depart="285.00" from="31" to="-69" type="veh_3518W16997_280" />
    <trip id="286" depart="286.00" from="4" to="78#1" type="EM103803_483" />
    <trip id="287" depart="287.00" from="-43" to="50#1" type="veh_221941181_269" />
    <trip id="288" depart="288.00" from="-81" to="-76" type="veh_14X70057EX_317" />
    <trip id="289" depart="289.00" from="-69" to="4" type="UB3R6AU15A1_792" />
    <trip id="290" depart="290.00" from="-43" to="62" type="AM71-3.0-L-996_452" />
    <trip id="291" depart="291.00" from="52" to="-19" type="EAL81A_13" />
    <trip id="292" depart="292.00" from="67" to="-41" type="VW416_8-0217_09_53" />
    <trip id="293" depart="293.00" from="-74" to="2" type="D416003_116" />
    <trip id="294" depart="294.00" from="-61" to="-11" type="veh_146GRE2000_258" />
    <trip id="295" depart="295.00" from="62" to="-3" type="HTF3FUP109A_782" />
    <trip id="296" depart="296.00" from="-32" to="50#0" type="veh_6ECPEG1-024_904" />
    <trip id="297" depart="297.00" from="-52" to="67" type="DC91-2.0-J-268_500" />
    <trip id="298" depart="298.00" from="31" to="-44" type="TD1F0GU13A1_773" />
    <trip id="299" depart="299.00" from="-1" to="77" type="veh_2B30701_1093" />
</routes>