<?xml version="1.0" encoding="UTF-8"?>

<!-- generated on 2025-10-28 10:43:40 by Eclipse SUMO duarouter Version 1.24.0
<duarouterConfiguration xmlns:xsi="http://www.w3.org/2001/XMLSchema-instance" xsi:noNamespaceSchemaLocation="http://sumo.dlr.de/xsd/duarouterConfiguration.xsd">

    <input>
        <net-file value="Town03.net.xml"/>
        <additional-files value="vtypes.xml"/>
        <route-files value="custom.trips.xml"/>
    </input>

    <output>
        <output-file value="custom.rou.xml"/>
    </output>

</duarouterConfiguration>
-->

<routes xmlns:xsi="http://www.w3.org/2001/XMLSchema-instance" xsi:noNamespaceSchemaLocation="http://sumo.dlr.de/xsd/routes_file.xsd">
    <vType id="car_1878" length="5.00" maxSpeed="33.00" vClass="passenger" emissionClass="HBEFA3/PC_G_EU4"/>
    <vehicle id="0" type="car_1878" depart="0.00">
        <route edges="22 21 62 61 -13 -14 -10"/>
    </vehicle>
    <vType id="car_1544" length="5.00" maxSpeed="33.00" vClass="passenger" emissionClass="HBEFA3/PC_G_EU4"/>
    <vehicle id="1" type="car_1544" depart="1.00">
        <route edges="-44 21 62 61 -13 -14 -10 -11 -36"/>
    </vehicle>
    <vType id="car_3340" length="5.00" maxSpeed="33.00" vClass="passenger" emissionClass="HBEFA3/PC_G_EU4"/>
    <vehicle id="2" type="car_3340" depart="2.00">
        <route edges="4 3 2 29"/>
    </vehicle>
    <vType id="car_3198" length="5.00" maxSpeed="33.00" vClass="passenger" emissionClass="HBEFA3/PC_G_EU4"/>
    <vehicle id="3" type="car_3198" depart="3.00">
        <route edges="68 67 66 65 -0 -1 29 -19"/>
    </vehicle>
    <vType id="car_3356" length="5.00" maxSpeed="33.00" vClass="passenger" emissionClass="HBEFA3/PC_G_EU4"/>
    <vehicle id="4" type="car_3356" depart="4.00">
        <route edges="-68 -69 -24 30 -10 -11"/>
    </vehicle>
    <vType id="car_325" length="5.00" maxSpeed="33.00" vClass="passenger" emissionClass="HBEFA3/PC_G_EU4"/>
    <vehicle id="5" type="car_325" depart="5.00">
        <route edges="-36 -38 -12 -13 16 -30 -76 -78#0 -78#1 -79"/>
    </vehicle>
    <vType id="car_440" length="5.00" maxSpeed="33.00" vClass="passenger" emissionClass="HBEFA3/PC_G_EU4"/>
    <vehicle id="6" type="car_440" depart="6.00">
        <route edges="-10 -11 -36 -38 -12 -13 16 -30 -31"/>
    </vehicle>
    <vType id="car_4591" length="5.00" maxSpeed="33.00" vClass="passenger" emissionClass="HBEFA3/PC_G_EU4"/>
    <vehicle id="7" type="car_4591" depart="7.00">
        <route edges="23 22 21 20 2 1 0"/>
    </vehicle>
    <vType id="car_2187" length="5.00" maxSpeed="33.00" vClass="passenger" emissionClass="HBEFA3/PC_G_EU4"/>
    <vehicle id="8" type="car_2187" depart="8.00">
        <route edges="-36 -38 -12 -13 -14 -10 -11 15 -28 18"/>
    </vehicle>
    <vType id="car_1532" length="5.00" maxSpeed="33.00" vClass="passenger" emissionClass="HBEFA3/PC_G_EU4"/>
    <vehicle id="9" type="car_1532" depart="9.00">
        <route edges="50#1 50#0 49 47 66 65 -0"/>
    </vehicle>
    <vType id="car_3162" length="5.00" maxSpeed="33.00" vClass="passenger" emissionClass="HBEFA3/PC_G_EU4"/>
    <vehicle id="10" type="car_3162" depart="10.00">
        <route edges="50#1 50#0 49 80 79 78#1 78#0 77 30"/>
    </vehicle>
    <vType id="car_117" length="5.00" maxSpeed="33.00" vClass="passenger" emissionClass="HBEFA3/PC_G_EU4"/>
    <vehicle id="11" type="car_117" depart="11.00">
        <route edges="-52 -81 -60 52 51 50#1 50#0 49 47 66 65 -0 -1 29 28 -25"/>
    </vehicle>
    <vType id="car_816" length="5.00" maxSpeed="33.00" vClass="passenger" emissionClass="HBEFA3/PC_G_EU4"/>
    <vehicle id="12" type="car_816" depart="12.00">
        <route edges="78#0 77 30 -10 46 8 7 6 -66 -47 -48 -50#0 -50#1 -51 -52"/>
    </vehicle>
    <vType id="car_2327" length="5.00" maxSpeed="33.00" vClass="passenger" emissionClass="HBEFA3/PC_G_EU4"/>
    <vehicle id="13" type="car_2327" depart="13.00">
        <route edges="-19 2 1 -41 -18 -29 -2"/>
    </vehicle>
    <vType id="car_1406" length="5.00" maxSpeed="33.00" vClass="passenger" emissionClass="HBEFA3/PC_G_EU4"/>
    <vehicle id="14" type="car_1406" depart="14.00">
        <route edges="61 -13 -14 -10 -11 15 -28 -29 -2 19"/>
    </vehicle>
    <vType id="car_293" length="5.00" maxSpeed="33.00" vClass="passenger" emissionClass="HBEFA3/PC_G_EU4"/>
    <vehicle id="15" type="car_293" depart="15.00">
        <route edges="50#1 50#0 49 80 79 78#1 78#0 77 24 4"/>
    </vehicle>
    <vType id="car_4804" length="5.00" maxSpeed="33.00" vClass="passenger" emissionClass="HBEFA3/PC_G_EU4"/>
    <vehicle id="16" type="car_4804" depart="16.00">
        <route edges="-81 -60 52 51 50#1 50#0 49 80 79"/>
    </vehicle>
    <vType id="car_1363" length="5.00" maxSpeed="33.00" vClass="passenger" emissionClass="HBEFA3/PC_G_EU4"/>
    <vehicle id="17" type="car_1363" depart="17.00">
        <route edges="-61 3 2 1"/>
    </vehicle>
    <vType id="car_4528" length="5.00" maxSpeed="33.00" vClass="passenger" emissionClass="HBEFA3/PC_G_EU4"/>
    <vehicle id="18" type="car_4528" depart="18.00">
        <route edges="52 51 50#1 50#0 49 80 79 78#1 78#0 77 24 23 22 21 20"/>
    </vehicle>
    <vType id="car_3003" length="5.00" maxSpeed="33.00" vClass="passenger" emissionClass="HBEFA3/PC_G_EU4"/>
    <vehicle id="19" type="car_3003" depart="19.00">
        <route edges="65 -0 -1 29 28 -25 -38 -12 -13 16"/>
    </vehicle>
    <vType id="car_35" length="5.00" maxSpeed="33.00" vClass="passenger" emissionClass="HBEFA3/PC_G_EU4"/>
    <vehicle id="20" type="car_35" depart="20.00">
        <route edges="31 30 -10 -11 -36 -38 -12"/>
    </vehicle>
    <vType id="car_1128" length="5.00" maxSpeed="33.00" vClass="passenger" emissionClass="HBEFA3/PC_G_EU4"/>
    <vehicle id="21" type="car_1128" depart="21.00">
        <route edges="-38 -12 -13 -14 -10 46 8 7 6 -66 -47"/>
    </vehicle>
    <vType id="car_165" length="5.00" maxSpeed="33.00" vClass="passenger" emissionClass="HBEFA3/PC_G_EU4"/>
    <vehicle id="22" type="car_165" depart="22.00">
        <route edges="-18 28 -25 -38"/>
    </vehicle>
    <vType id="car_2159" length="5.00" maxSpeed="33.00" vClass="passenger" emissionClass="HBEFA3/PC_G_EU4"/>
    <vehicle id="23" type="car_2159" depart="23.00">
        <route edges="-2 -3 -44"/>
    </vehicle>
    <vType id="car_2205" length="5.00" maxSpeed="33.00" vClass="passenger" emissionClass="HBEFA3/PC_G_EU4"/>
    <vehicle id="24" type="car_2205" depart="24.00">
        <route edges="22 21 62 -4 -24 -76 -78#0 -78#1 -79 -80 -48 -50#0 -50#1 -51 -52 -81 -60"/>
    </vehicle>
    <vType id="car_698" length="5.00" maxSpeed="33.00" vClass="passenger" emissionClass="HBEFA3/PC_G_EU4"/>
    <vehicle id="25" type="car_698" depart="25.00">
        <route edges="-60 52 51 50#1 50#0 49 80 79 78#1 78#0 77 -31 -32"/>
    </vehicle>
    <vType id="car_4458" length="5.00" maxSpeed="33.00" vClass="passenger" emissionClass="HBEFA3/PC_G_EU4"/>
    <vehicle id="26" type="car_4458" depart="26.00">
        <route edges="-43 -8 34 15 -28 -29 1 0 -65 -5 75"/>
    </vehicle>
    <vType id="car_311" length="5.00" maxSpeed="33.00" vClass="passenger" emissionClass="HBEFA3/PC_G_EU4"/>
    <vehicle id="27" type="car_311" depart="27.00">
        <route edges="23 22 21 20 2"/>
    </vehicle>
    <vType id="car_406" length="5.00" maxSpeed="33.00" vClass="passenger" emissionClass="HBEFA3/PC_G_EU4"/>
    <vehicle id="28" type="car_406" depart="28.00">
        <route edges="-29 -2 -3 -44 -22 -23 4"/>
    </vehicle>
    <vType id="car_2894" length="5.00" maxSpeed="33.00" vClass="passenger" emissionClass="HBEFA3/PC_G_EU4"/>
    <vehicle id="29" type="car_2894" depart="29.00">
        <route edges="-28 -29 1 -41 -18 28 -25 -61"/>
    </vehicle>
    <vType id="car_4609" length="5.00" maxSpeed="33.00" vClass="passenger" emissionClass="HBEFA3/PC_G_EU4"/>
    <vehicle id="30" type="car_4609" depart="30.00">
        <route edges="8 7 6 -66 -47 80 79 78#1 78#0 77 24 23 22"/>
    </vehicle>
    <vType id="car_2021" length="5.00" maxSpeed="33.00" vClass="passenger" emissionClass="HBEFA3/PC_G_EU4"/>
    <vehicle id="31" type="car_2021" depart="31.00">
        <route edges="1 -41 -18 28 -25 -61 3"/>
    </vehicle>
    <vType id="car_4095" length="5.00" maxSpeed="33.00" vClass="passenger" emissionClass="HBEFA3/PC_G_EU4"/>
    <vehicle id="32" type="car_4095" depart="32.00">
        <route edges="61 -13 16 -30 -76 -78#0 -78#1 -79 -80 47"/>
    </vehicle>
    <vType id="car_2638" length="5.00" maxSpeed="33.00" vClass="passenger" emissionClass="HBEFA3/PC_G_EU4"/>
    <vehicle id="33" type="car_2638" depart="33.00">
        <route edges="-38 -12 -13 -14 -10 -11"/>
    </vehicle>
    <vType id="car_940" length="5.00" maxSpeed="33.00" vClass="passenger" emissionClass="HBEFA3/PC_G_EU4"/>
    <vehicle id="34" type="car_940" depart="34.00">
        <route edges="-50#0 -50#1 -51 -52 -81 -60 52 51 50#1 50#0 49 80 79 78#1 78#0 77 30 -10 -11 15 -28 18 -42 -43"/>
    </vehicle>
    <vType id="car_659" length="5.00" maxSpeed="33.00" vClass="passenger" emissionClass="HBEFA3/PC_G_EU4"/>
    <vehicle id="35" type="car_659" depart="35.00">
        <route edges="-32 -68 -69 4 3 2 1 0 -65 -5 75"/>
    </vehicle>
    <vType id="car_1734" length="5.00" maxSpeed="33.00" vClass="passenger" emissionClass="HBEFA3/PC_G_EU4"/>
    <vehicle id="36" type="car_1734" depart="36.00">
        <route edges="66 65 -0 -1 29 28 -25 -38 -12 -13 16 -30 -76 -78#0 -78#1 -79 -80 -48 -50#0"/>
    </vehicle>
    <vType id="car_4089" length="5.00" maxSpeed="33.00" vClass="passenger" emissionClass="HBEFA3/PC_G_EU4"/>
    <vehicle id="37" type="car_4089" depart="37.00">
        <route edges="24 4 3 2 1 0 -65"/>
    </vehicle>
    <vType id="car_3285" length="5.00" maxSpeed="33.00" vClass="passenger" emissionClass="HBEFA3/PC_G_EU4"/>
    <vehicle id="38" type="car_3285" depart="38.00">
        <route edges="7 6 -66 -47 80 79 78#1 78#0 77 30 -10 -11 15 -28 18 17 -74"/>
    </vehicle>
    <vType id="car_4288" length="5.00" maxSpeed="33.00" vClass="passenger" emissionClass="HBEFA3/PC_G_EU4"/>
    <vehicle id="39" type="car_4288" depart="39.00">
        <route edges="-43 -8 34 15 -28 -29 1 -41"/>
    </vehicle>
    <vType id="car_3275" length="5.00" maxSpeed="33.00" vClass="passenger" emissionClass="HBEFA3/PC_G_EU4"/>
    <vehicle id="40" type="car_3275" depart="40.00">
        <route edges="15 -28 18 -42 -43"/>
    </vehicle>
    <vType id="car_2244" length="5.00" maxSpeed="33.00" vClass="passenger" emissionClass="HBEFA3/PC_G_EU4"/>
    <vehicle id="41" type="car_2244" depart="41.00">
        <route edges="17 -74 -75 -7 -8 34 -36 -38 -12 -13 16 -30 24 69"/>
    </vehicle>
    <vType id="car_359" length="5.00" maxSpeed="33.00" vClass="passenger" emissionClass="HBEFA3/PC_G_EU4"/>
    <vehicle id="42" type="car_359" depart="42.00">
        <route edges="-65 -5 -7 -8 34 -36"/>
    </vehicle>
    <vType id="car_3962" length="5.00" maxSpeed="33.00" vClass="passenger" emissionClass="HBEFA3/PC_G_EU4"/>
    <vehicle id="43" type="car_3962" depart="43.00">
        <route edges="80 79 78#1 78#0 77 -31 -58 -69 -24 -76 -78#0 -78#1 -79"/>
    </vehicle>
    <vType id="car_4620" length="5.00" maxSpeed="33.00" vClass="passenger" emissionClass="HBEFA3/PC_G_EU4"/>
    <vehicle id="44" type="car_4620" depart="44.00">
        <route edges="-19 -3 61 -13"/>
    </vehicle>
    <vType id="car_2767" length="5.00" maxSpeed="33.00" vClass="passenger" emissionClass="HBEFA3/PC_G_EU4"/>
    <vehicle id="45" type="car_2767" depart="45.00">
        <route edges="-20 62 -44 21"/>
    </vehicle>
    <vType id="car_103" length="5.00" maxSpeed="33.00" vClass="passenger" emissionClass="HBEFA3/PC_G_EU4"/>
    <vehicle id="46" type="car_103" depart="46.00">
        <route edges="49 80 79 78#1 78#0 77 -31 -32 -68"/>
    </vehicle>
    <vType id="car_2569" length="5.00" maxSpeed="33.00" vClass="passenger" emissionClass="HBEFA3/PC_G_EU4"/>
    <vehicle id="47" type="car_2569" depart="47.00">
        <route edges="-14 -10 -11 15 -28 -29 1 -41 -18 28 -25 -61"/>
    </vehicle>
    <vType id="car_2975" length="5.00" maxSpeed="33.00" vClass="passenger" emissionClass="HBEFA3/PC_G_EU4"/>
    <vehicle id="48" type="car_2975" depart="48.00">
        <route edges="80 79 78#1 78#0 77 -31 -58 -69 -24 -76 -78#0 -78#1 -79 -80"/>
    </vehicle>
    <vType id="car_3952" length="5.00" maxSpeed="33.00" vClass="passenger" emissionClass="HBEFA3/PC_G_EU4"/>
    <vehicle id="49" type="car_3952" depart="49.00">
        <route edges="78#1 78#0 77 24 69 68 67 66 65"/>
    </vehicle>
    <vType id="car_4270" length="5.00" maxSpeed="33.00" vClass="passenger" emissionClass="HBEFA3/PC_G_EU4"/>
    <vehicle id="50" type="car_4270" depart="50.00">
        <route edges="-1 29 18 -42 -43 -8 34"/>
    </vehicle>
    <vType id="car_1960" length="5.00" maxSpeed="33.00" vClass="passenger" emissionClass="HBEFA3/PC_G_EU4"/>
    <vehicle id="51" type="car_1960" depart="51.00">
        <route edges="29 28 -25 -38 -12 -13 16 -30 -76 -78#0 -78#1 -79 -80 -48 -50#0 -50#1 -51 -52 -81"/>
    </vehicle>
    <vType id="car_2020" length="5.00" maxSpeed="33.00" vClass="passenger" emissionClass="HBEFA3/PC_G_EU4"/>
    <vehicle id="52" type="car_2020" depart="52.00">
        <route edges="-43 -8 34 -36 -38 -12 -13 16 -30 24 23 22"/>
    </vehicle>
    <vType id="car_4542" length="5.00" maxSpeed="33.00" vClass="passenger" emissionClass="HBEFA3/PC_G_EU4"/>
    <vehicle id="53" type="car_4542" depart="53.00">
        <route edges="-20 62 -4 -24 -31 -58 -69"/>
    </vehicle>
    <vType id="car_631" length="5.00" maxSpeed="33.00" vClass="passenger" emissionClass="HBEFA3/PC_G_EU4"/>
    <vehicle id="54" type="car_631" depart="54.00">
        <route edges="-73 -17 41 0 -65 -66 -47 80 79 78#1 78#0"/>
    </vehicle>
    <vType id="car_1819" length="5.00" maxSpeed="33.00" vClass="passenger" emissionClass="HBEFA3/PC_G_EU4"/>
    <vehicle id="55" type="car_1819" depart="55.00">
        <route edges="66 65 -0 -1 29 18 -42 -43"/>
    </vehicle>
    <vType id="car_399" length="5.00" maxSpeed="33.00" vClass="passenger" emissionClass="HBEFA3/PC_G_EU4"/>
    <vehicle id="56" type="car_399" depart="56.00">
        <route edges="-78#1 -79 -80 47 66 65 -0 -1 -2 -3"/>
    </vehicle>
    <vType id="car_4164" length="5.00" maxSpeed="33.00" vClass="passenger" emissionClass="HBEFA3/PC_G_EU4"/>
    <vehicle id="57" type="car_4164" depart="57.00">
        <route edges="7 6 -66 -47 -48 -50#0 -50#1 -51 -52 -81 -60 52 51 50#1 50#0 49 47 66"/>
    </vehicle>
    <vType id="car_2973" length="5.00" maxSpeed="33.00" vClass="passenger" emissionClass="HBEFA3/PC_G_EU4"/>
    <vehicle id="58" type="car_2973" depart="58.00">
        <route edges="-48 -50#0 -50#1 -51 -52 -81 -60 52 51 50#1 50#0 49 80 79 78#1 78#0 77 24 23 22"/>
    </vehicle>
    <vType id="car_3518" length="5.00" maxSpeed="33.00" vClass="passenger" emissionClass="HBEFA3/PC_G_EU4"/>
    <vehicle id="59" type="car_3518" depart="59.00">
        <route edges="2 29 28 -25"/>
    </vehicle>
    <vType id="car_4058" length="5.00" maxSpeed="33.00" vClass="passenger" emissionClass="HBEFA3/PC_G_EU4"/>
    <vehicle id="60" type="car_4058" depart="60.00">
        <route edges="43 42 41 0 -65 -66 -47 -48 -50#0 -50#1 -51 -52 -81"/>
    </vehicle>
    <vType id="car_557" length="5.00" maxSpeed="33.00" vClass="passenger" emissionClass="HBEFA3/PC_G_EU4"/>
    <vehicle id="61" type="car_557" depart="61.00">
        <route edges="47 -67 33 31 -76 -78#0 -78#1 -79 -80"/>
    </vehicle>
    <vType id="car_2168" length="5.00" maxSpeed="33.00" vClass="passenger" emissionClass="HBEFA3/PC_G_EU4"/>
    <vehicle id="62" type="car_2168" depart="62.00">
        <route edges="-0 -1 29 28 -25 -38 -12 -13 16 -30 -76 -78#0 -78#1 -79 -80 -48 -50#0 -50#1"/>
    </vehicle>
    <vType id="car_2927" length="5.00" maxSpeed="33.00" vClass="passenger" emissionClass="HBEFA3/PC_G_EU4"/>
    <vehicle id="63" type="car_2927" depart="63.00">
        <route edges="-10 -11 15 -28 -29 1 0 -65 -5 75 74"/>
    </vehicle>
    <vType id="car_1229" length="5.00" maxSpeed="33.00" vClass="passenger" emissionClass="HBEFA3/PC_G_EU4"/>
    <vehicle id="64" type="car_1229" depart="64.00">
        <route edges="67 -47 -48 -50#0 -50#1 -51 -52 -81 -60 52"/>
    </vehicle>
    <vType id="car_1843" length="5.00" maxSpeed="33.00" vClass="passenger" emissionClass="HBEFA3/PC_G_EU4"/>
    <vehicle id="65" type="car_1843" depart="65.00">
        <route edges="-5 -7 -8 34 -36 -38 -12 -13 -14"/>
    </vehicle>
    <vType id="car_4730" length="5.00" maxSpeed="33.00" vClass="passenger" emissionClass="HBEFA3/PC_G_EU4"/>
    <vehicle id="66" type="car_4730" depart="66.00">
        <route edges="66 65 -0 -1 29 28 -25 -38 -12 -13 -14 -10 46 8 7 6 -66 -47 80 79 78#1 78#0 77"/>
    </vehicle>
    <vType id="car_3882" length="5.00" maxSpeed="33.00" vClass="passenger" emissionClass="HBEFA3/PC_G_EU4"/>
    <vehicle id="67" type="car_3882" depart="67.00">
        <route edges="-19 -3 -4 -24 -76 -78#0"/>
    </vehicle>
    <vType id="car_3238" length="5.00" maxSpeed="33.00" vClass="passenger" emissionClass="HBEFA3/PC_G_EU4"/>
    <vehicle id="68" type="car_3238" depart="68.00">
        <route edges="-17 41 0 -73 -74 -75 -7 43"/>
    </vehicle>
    <vType id="car_4693" length="5.00" maxSpeed="33.00" vClass="passenger" emissionClass="HBEFA3/PC_G_EU4"/>
    <vehicle id="69" type="car_4693" depart="69.00">
        <route edges="43 42 -18 28 -25 -61 -44 -22"/>
    </vehicle>
    <vType id="car_4147" length="5.00" maxSpeed="33.00" vClass="passenger" emissionClass="HBEFA3/PC_G_EU4"/>
    <vehicle id="70" type="car_4147" depart="70.00">
        <route edges="-75 -7 43 42 41 0"/>
    </vehicle>
    <vType id="car_1560" length="5.00" maxSpeed="33.00" vClass="passenger" emissionClass="HBEFA3/PC_G_EU4"/>
    <vehicle id="71" type="car_1560" depart="71.00">
        <route edges="-43 -8 34 -36 -38 -12 -13 16 -30 -76 -78#0 -78#1 -79 -80 47 66"/>
    </vehicle>
    <vType id="car_2301" length="5.00" maxSpeed="33.00" vClass="passenger" emissionClass="HBEFA3/PC_G_EU4"/>
    <vehicle id="72" type="car_2301" depart="72.00">
        <route edges="-68 -69 -24 -31 -32"/>
    </vehicle>
    <vType id="car_3094" length="5.00" maxSpeed="33.00" vClass="passenger" emissionClass="HBEFA3/PC_G_EU4"/>
    <vehicle id="73" type="car_3094" depart="73.00">
        <route edges="-81 -60 52 51 50#1 50#0 49 80 79 78#1 78#0 77 24 4"/>
    </vehicle>
    <vType id="car_1471" length="5.00" maxSpeed="33.00" vClass="passenger" emissionClass="HBEFA3/PC_G_EU4"/>
    <vehicle id="74" type="car_1471" depart="74.00">
        <route edges="-31 -58 -69 -24 -76 -78#0 -78#1 -79 -80 -48 -50#0"/>
    </vehicle>
    <vType id="car_4361" length="5.00" maxSpeed="33.00" vClass="passenger" emissionClass="HBEFA3/PC_G_EU4"/>
    <vehicle id="75" type="car_4361" depart="75.00">
        <route edges="80 79 78#1 78#0 77 24 23"/>
    </vehicle>
    <vType id="car_168" length="5.00" maxSpeed="33.00" vClass="passenger" emissionClass="HBEFA3/PC_G_EU4"/>
    <vehicle id="76" type="car_168" depart="76.00">
        <route edges="-69 -24 30 -10 -11 15 -28 18 -42 -43 -8"/>
    </vehicle>
    <vType id="car_3791" length="5.00" maxSpeed="33.00" vClass="passenger" emissionClass="HBEFA3/PC_G_EU4"/>
    <vehicle id="77" type="car_3791" depart="77.00">
        <route edges="-21 -22 -23 -24 30 -10 -11 -36 -38"/>
    </vehicle>
    <vType id="car_2024" length="5.00" maxSpeed="33.00" vClass="passenger" emissionClass="HBEFA3/PC_G_EU4"/>
    <vehicle id="78" type="car_2024" depart="78.00">
        <route edges="-52 -81 -60 52 51 50#1 50#0 49 80 79 78#1 78#0 77 30 -10 -11 15 -28 18 17"/>
    </vehicle>
    <vType id="car_2649" length="5.00" maxSpeed="33.00" vClass="passenger" emissionClass="HBEFA3/PC_G_EU4"/>
    <vehicle id="79" type="car_2649" depart="79.00">
        <route edges="-38 -12 -13 -14 -10 -11 -36"/>
    </vehicle>
    <vType id="car_3173" length="5.00" maxSpeed="33.00" vClass="passenger" emissionClass="HBEFA3/PC_G_EU4"/>
    <vehicle id="80" type="car_3173" depart="80.00">
        <route edges="-17 -18 28 -25 -61 -44 21"/>
    </vehicle>
    <vType id="car_4229" length="5.00" maxSpeed="33.00" vClass="passenger" emissionClass="HBEFA3/PC_G_EU4"/>
    <vehicle id="81" type="car_4229" depart="81.00">
        <route edges="-38 -12 -13 16 -30 24 69"/>
    </vehicle>
    <vType id="car_3684" length="5.00" maxSpeed="33.00" vClass="passenger" emissionClass="HBEFA3/PC_G_EU4"/>
    <vehicle id="82" type="car_3684" depart="82.00">
        <route edges="62 3 2 1 0 -73 -17"/>
    </vehicle>
    <vType id="car_1053" length="5.00" maxSpeed="33.00" vClass="passenger" emissionClass="HBEFA3/PC_G_EU4"/>
    <vehicle id="83" type="car_1053" depart="83.00">
        <route edges="-4 23 22 21 20 19 28"/>
    </vehicle>
    <vType id="car_1934" length="5.00" maxSpeed="33.00" vClass="passenger" emissionClass="HBEFA3/PC_G_EU4"/>
    <vehicle id="84" type="car_1934" depart="84.00">
        <route edges="-32 -68 -69 4 -44 -22 -23"/>
    </vehicle>
    <vType id="car_1304" length="5.00" maxSpeed="33.00" vClass="passenger" emissionClass="HBEFA3/PC_G_EU4"/>
    <vehicle id="85" type="car_1304" depart="85.00">
        <route edges="75 -59 -43 -8 34 -36 -38 -12 -13 16"/>
    </vehicle>
    <vType id="car_3635" length="5.00" maxSpeed="33.00" vClass="passenger" emissionClass="HBEFA3/PC_G_EU4"/>
    <vehicle id="86" type="car_3635" depart="86.00">
        <route edges="-75 -7 -8 34 -36 -38 -12 -13 16 -30 -76 -78#0 -78#1 -79 -80 47"/>
    </vehicle>
    <vType id="car_4491" length="5.00" maxSpeed="33.00" vClass="passenger" emissionClass="HBEFA3/PC_G_EU4"/>
    <vehicle id="87" type="car_4491" depart="87.00">
        <route edges="50#1 50#0 49 80 79 78#1 78#0 77 30 -10 -11 -36 -38 -12 -13 16 -30"/>
    </vehicle>
    <vType id="car_4441" length="5.00" maxSpeed="33.00" vClass="passenger" emissionClass="HBEFA3/PC_G_EU4"/>
    <vehicle id="88" type="car_4441" depart="88.00">
        <route edges="-2 -3 -4 -24 -31 -58 -69"/>
    </vehicle>
    <vType id="car_317" length="5.00" maxSpeed="33.00" vClass="passenger" emissionClass="HBEFA3/PC_G_EU4"/>
    <vehicle id="89" type="car_317" depart="89.00">
        <route edges="-68 -69 -24 30 -10 -11 15 -28 18 17 -74"/>
    </vehicle>
    <vType id="car_1385" length="5.00" maxSpeed="33.00" vClass="passenger" emissionClass="HBEFA3/PC_G_EU4"/>
    <vehicle id="90" type="car_1385" depart="90.00">
        <route edges="4 3 2 29"/>
    </vehicle>
    <vType id="car_4145" length="5.00" maxSpeed="33.00" vClass="passenger" emissionClass="HBEFA3/PC_G_EU4"/>
    <vehicle id="91" type="car_4145" depart="91.00">
        <route edges="8 7 6 -66 -47 80 79 78#1 78#0 77 30 -10 -11 15 -28 -29 -2"/>
    </vehicle>
    <vType id="car_3783" length="5.00" maxSpeed="33.00" vClass="passenger" emissionClass="HBEFA3/PC_G_EU4"/>
    <vehicle id="92" type="car_3783" depart="92.00">
        <route edges="-66 -47 -48 -50#0 -50#1 -51 -52"/>
    </vehicle>
    <vType id="car_781" length="5.00" maxSpeed="33.00" vClass="passenger" emissionClass="HBEFA3/PC_G_EU4"/>
    <vehicle id="93" type="car_781" depart="93.00">
        <route edges="65 -0 -1 29 -19 2 1 -41"/>
    </vehicle>
    <vType id="car_4747" length="5.00" maxSpeed="33.00" vClass="passenger" emissionClass="HBEFA3/PC_G_EU4"/>
    <vehicle id="94" type="car_4747" depart="94.00">
        <route edges="-30 24 4 3 2 1 0 -73"/>
    </vehicle>
    <vType id="car_2899" length="5.00" maxSpeed="33.00" vClass="passenger" emissionClass="HBEFA3/PC_G_EU4"/>
    <vehicle id="95" type="car_2899" depart="95.00">
        <route edges="-68 -69 4 -44"/>
    </vehicle>
    <vType id="car_2414" length="5.00" maxSpeed="33.00" vClass="passenger" emissionClass="HBEFA3/PC_G_EU4"/>
    <vehicle id="96" type="car_2414" depart="96.00">
        <route edges="-41 17 73"/>
    </vehicle>
    <vType id="car_155" length="5.00" maxSpeed="33.00" vClass="passenger" emissionClass="HBEFA3/PC_G_EU4"/>
    <vehicle id="97" type="car_155" depart="97.00">
        <route edges="-7 -8 34 -36 -38 -12 -13 16 -30 -76 -78#0 -78#1 -79 -80 47 66 65"/>
    </vehicle>
    <vType id="car_133" length="5.00" maxSpeed="33.00" vClass="passenger" emissionClass="HBEFA3/PC_G_EU4"/>
    <vehicle id="98" type="car_133" depart="98.00">
        <route edges="0 -73 -17 -18 28 -25 -38 -12 -13"/>
    </vehicle>
    <vType id="car_3244" length="5.00" maxSpeed="33.00" vClass="passenger" emissionClass="HBEFA3/PC_G_EU4"/>
    <vehicle id="99" type="car_3244" depart="99.00">
        <route edges="80 79 78#1 78#0 77 30 -10 46 8 7 6"/>
    </vehicle>
    <vType id="car_3857" length="5.00" maxSpeed="33.00" vClass="passenger" emissionClass="HBEFA3/PC_G_EU4"/>
    <vehicle id="100" type="car_3857" depart="100.00">
        <route edges="78#1 78#0 77 30 -10 -11 15 -28 -29 1 0 -65 -5 75 74"/>
    </vehicle>
    <vType id="car_2709" length="5.00" maxSpeed="33.00" vClass="passenger" emissionClass="HBEFA3/PC_G_EU4"/>
    <vehicle id="101" type="car_2709" depart="101.00">
        <route edges="61 -13 -14 -10 -11 15 -28"/>
    </vehicle>
    <vType id="car_808" length="5.00" maxSpeed="33.00" vClass="passenger" emissionClass="HBEFA3/PC_G_EU4"/>
    <vehicle id="102" type="car_808" depart="102.00">
        <route edges="-76 -78#0 -78#1 -79 -80 -48 -50#0 -50#1 -51 -52 -81 -60 52 51 50#1 50#0 49 80 79 78#1 78#0 77 -31 -32"/>
    </vehicle>
    <vType id="car_459" length="5.00" maxSpeed="33.00" vClass="passenger" emissionClass="HBEFA3/PC_G_EU4"/>
    <vehicle id="103" type="car_459" depart="103.00">
        <route edges="-65 -5 -7 -8 34 -36 -38 -12 -13 -14"/>
    </vehicle>
    <vType id="car_1214" length="5.00" maxSpeed="33.00" vClass="passenger" emissionClass="HBEFA3/PC_G_EU4"/>
    <vehicle id="104" type="car_1214" depart="104.00">
        <route edges="-61 -4 -24 30 -10 46 8"/>
    </vehicle>
    <vType id="car_3243" length="5.00" maxSpeed="33.00" vClass="passenger" emissionClass="HBEFA3/PC_G_EU4"/>
    <vehicle id="105" type="car_3243" depart="105.00">
        <route edges="-43 -8 34 -36 -38 -12 -13 16 -30 -76 -78#0 -78#1 -79 -80 47"/>
    </vehicle>
    <vType id="car_2959" length="5.00" maxSpeed="33.00" vClass="passenger" emissionClass="HBEFA3/PC_G_EU4"/>
    <vehicle id="106" type="car_2959" depart="106.00">
        <route edges="-73 -17 -18 28 -25 -38 -12 -13 16 -30 -31 -32 -68"/>
    </vehicle>
    <vType id="car_1314" length="5.00" maxSpeed="33.00" vClass="passenger" emissionClass="HBEFA3/PC_G_EU4"/>
    <vehicle id="107" type="car_1314" depart="107.00">
        <route edges="78#0 77 30 -10 46 8 7 6 -66 -47 80"/>
    </vehicle>
    <vType id="car_1054" length="5.00" maxSpeed="33.00" vClass="passenger" emissionClass="HBEFA3/PC_G_EU4"/>
    <vehicle id="108" type="car_1054" depart="108.00">
        <route edges="1 0 -65 -66 -67 33"/>
    </vehicle>
    <vType id="car_4487" length="5.00" maxSpeed="33.00" vClass="passenger" emissionClass="HBEFA3/PC_G_EU4"/>
    <vehicle id="109" type="car_4487" depart="109.00">
        <route edges="-25 -38 -12 -13 16 -30 -76 -78#0 -78#1 -79 -80 -48"/>
    </vehicle>
    <vType id="car_1761" length="5.00" maxSpeed="33.00" vClass="passenger" emissionClass="HBEFA3/PC_G_EU4"/>
    <vehicle id="110" type="car_1761" depart="110.00">
        <route edges="78#1 78#0 77 30 -10 -11 -36 -38 -12 -13 16"/>
    </vehicle>
    <vType id="car_49" length="5.00" maxSpeed="33.00" vClass="passenger" emissionClass="HBEFA3/PC_G_EU4"/>
    <vehicle id="111" type="car_49" depart="111.00">
        <route edges="0 -73 -74 -59 42"/>
    </vehicle>
    <vType id="car_3669" length="5.00" maxSpeed="33.00" vClass="passenger" emissionClass="HBEFA3/PC_G_EU4"/>
    <vehicle id="112" type="car_3669" depart="112.00">
        <route edges="-14 -10 -11 15 -28 18 17"/>
    </vehicle>
    <vType id="car_57" length="5.00" maxSpeed="33.00" vClass="passenger" emissionClass="HBEFA3/PC_G_EU4"/>
    <vehicle id="113" type="car_57" depart="113.00">
        <route edges="-78#1 -79 -80 47 -67 -68 -69 23 22 21 62"/>
    </vehicle>
    <vType id="car_3994" length="5.00" maxSpeed="33.00" vClass="passenger" emissionClass="HBEFA3/PC_G_EU4"/>
    <vehicle id="114" type="car_3994" depart="114.00">
        <route edges="-25 -38 -12 -13 -14 -10 46 8 7 6 -66 -47 80 79 78#1 78#0"/>
    </vehicle>
    <vType id="car_3028" length="5.00" maxSpeed="33.00" vClass="passenger" emissionClass="HBEFA3/PC_G_EU4"/>
    <vehicle id="115" type="car_3028" depart="115.00">
        <route edges="-18 -19 -3"/>
    </vehicle>
    <vType id="car_1092" length="5.00" maxSpeed="33.00" vClass="passenger" emissionClass="HBEFA3/PC_G_EU4"/>
    <vehicle id="116" type="car_1092" depart="116.00">
        <route edges="18 41 0 -73 -17 -18 -19 2 29"/>
    </vehicle>
    <vType id="car_4255" length="5.00" maxSpeed="33.00" vClass="passenger" emissionClass="HBEFA3/PC_G_EU4"/>
    <vehicle id="117" type="car_4255" depart="117.00">
        <route edges="-4 -24 -31 -58 -69 4 -62 -21"/>
    </vehicle>
    <vehicle id="118" type="car_2959" depart="118.00">
        <route edges="68 67 -47 80 79 78#1 78#0 77 30 -10 -11 15 -28 -29 1 -41"/>
    </vehicle>
    <vType id="car_2255" length="5.00" maxSpeed="33.00" vClass="passenger" emissionClass="HBEFA3/PC_G_EU4"/>
    <vehicle id="119" type="car_2255" depart="119.00">
        <route edges="18 41 0 -73 -17 -18 28 -25 -61 -62 20"/>
    </vehicle>
    <vType id="car_2476" length="5.00" maxSpeed="33.00" vClass="passenger" emissionClass="HBEFA3/PC_G_EU4"/>
    <vehicle id="120" type="car_2476" depart="120.00">
        <route edges="-67 33 31 30 -10 -11 15 -28 18 17"/>
    </vehicle>
    <vType id="car_1612" length="5.00" maxSpeed="33.00" vClass="passenger" emissionClass="HBEFA3/PC_G_EU4"/>
    <vehicle id="121" type="car_1612" depart="121.00">
        <route edges="-8 34 15 -28 -29 1 0 -65 -5 75"/>
    </vehicle>
    <vType id="car_4153" length="5.00" maxSpeed="33.00" vClass="passenger" emissionClass="HBEFA3/PC_G_EU4"/>
    <vehicle id="122" type="car_4153" depart="122.00">
        <route edges="-31 -58 -69 -24 -76 -78#0 -78#1 -79 -80 47 -67 33"/>
    </vehicle>