<?xml version="1.0" encoding="UTF-8"?>

<!-- generated on 2025-10-28 20:09:04 by Eclipse SUMO duarouter Version 1.24.0
<duarouterConfiguration xmlns:xsi="http://www.w3.org/2001/XMLSchema-instance" xsi:noNamespaceSchemaLocation="http://sumo.dlr.de/xsd/duarouterConfiguration.xsd">

    <input>
        <net-file value="Town03.net.xml"/>
        <additional-files value="vtypes.xml"/>
        <route-files value="custom.trips.xml"/>
    </input>

    <output>
        <output-file value="custom.rou.xml"/>
    </output>

</duarouterConfiguration>
-->

<routes xmlns:xsi="http://www.w3.org/2001/XMLSchema-instance" xsi:noNamespaceSchemaLocation="http://sumo.dlr.de/xsd/routes_file.xsd">
    <vType id="BRE217_1164" length="5.00" maxSpeed="33.00" vClass="passenger" emissionClass="HBEFA3/PC_G_EU4">
        <param key="customCO2" value="268.5"/>
    </vType>
    <vehicle id="0" type="BRE217_1164" depart="0.00">
        <route edges="22 21 62 61 -13 -14 -10"/>
    </vehicle>
    <vType id="veh_9EC13B31_916" length="5.00" maxSpeed="33.00" vClass="passenger" emissionClass="HBEFA3/PC_G_EU4">
        <param key="customCO2" value="345.75"/>
    </vType>
    <vehicle id="1" type="veh_9EC13B31_916" depart="1.00">
        <route edges="-44 21 62 61 -13 -14 -10 -11 -36"/>
    </vehicle>
    <vType id="veh_11-ZA1H_820" length="5.00" maxSpeed="33.00" vClass="passenger" emissionClass="HBEFA3/PC_G_EU4">
        <param key="customCO2" value="181.92298432857143"/>
    </vType>
    <vehicle id="2" type="veh_11-ZA1H_820" depart="2.00">
        <route edges="4 3 2 29"/>
    </vehicle>
    <vType id="PU87089_87" length="5.00" maxSpeed="33.00" vClass="passenger" emissionClass="HBEFA3/PC_G_EU4">
        <param key="customCO2" value="302.6225"/>
    </vType>
    <vehicle id="3" type="PU87089_87" depart="3.00">
        <route edges="68 67 66 65 -0 -1 29 -19"/>
    </vehicle>
    <vType id="APA00018_504" length="5.00" maxSpeed="33.00" vClass="passenger" emissionClass="HBEFA3/PC_G_EU4">
        <param key="customCO2" value="397.65099999999995"/>
    </vType>
    <vehicle id="4" type="APA00018_504" depart="4.00">
        <route edges="-68 -69 -24 30 -10 -11"/>
    </vehicle>
    <vType id="veh_201614_1429" length="5.00" maxSpeed="33.00" vClass="passenger" emissionClass="HBEFA3/PC_G_EU4">
        <param key="customCO2" value="359.69818274285717"/>
    </vType>
    <vehicle id="5" type="veh_201614_1429" depart="5.00">
        <route edges="-36 -38 -12 -13 16 -30 -76 -78#0 -78#1 -79"/>
    </vehicle>
    <vType id="veh_461_90010_10_1404" length="5.00" maxSpeed="33.00" vClass="passenger" emissionClass="HBEFA3/PC_G_EU4">
        <param key="customCO2" value="307.84970167391305"/>
    </vType>
    <vehicle id="6" type="veh_461_90010_10_1404" depart="6.00">
        <route edges="-10 -11 -36 -38 -12 -13 16 -30 -31"/>
    </vehicle>
    <vType id="EB10-A455_923" length="5.00" maxSpeed="33.00" vClass="passenger" emissionClass="HBEFA3/PC_G_EU4">
        <param key="customCO2" value="270.34067300000004"/>
    </vType>
    <vehicle id="7" type="EB10-A455_923" depart="7.00">
        <route edges="23 22 21 20 2 1 0"/>
    </vehicle>
    <vType id="EB421A_552" length="5.00" maxSpeed="33.00" vClass="passenger" emissionClass="HBEFA3/PC_G_EU4">
        <param key="customCO2" value="251.92000000000002"/>
    </vType>
    <vehicle id="8" type="EB421A_552" depart="8.00">
        <route edges="-36 -38 -12 -13 -14 -10 -11 15 -28 18"/>
    </vehicle>
    <vType id="veh_241ALP5615_275" length="5.00" maxSpeed="33.00" vClass="passenger" emissionClass="HBEFA3/PC_G_EU4">
        <param key="customCO2" value="274.50607758846155"/>
    </vType>
    <vehicle id="9" type="veh_241ALP5615_275" depart="9.00">
        <route edges="50#1 50#0 49 47 66 65 -0"/>
    </vehicle>
    <vType id="C216E55TC-Z7014-1_966" length="5.00" maxSpeed="33.00" vClass="passenger" emissionClass="HBEFA3/PC_G_EU4">
        <param key="customCO2" value="484.31711344999997"/>
    </vType>
    <vehicle id="10" type="C216E55TC-Z7014-1_966" depart="10.00">
        <route edges="50#1 50#0 49 80 79 78#1 78#0 77 30"/>
    </vehicle>
    <vType id="veh_53XEGP9036_330" length="5.00" maxSpeed="33.00" vClass="passenger" emissionClass="HBEFA3/PC_G_EU4">
        <param key="customCO2" value="462.5665625"/>
    </vType>
    <vehicle id="11" type="veh_53XEGP9036_330" depart="11.00">
        <route edges="-52 -81 -60 52 51 50#1 50#0 49 47 66 65 -0 -1 29 28 -25"/>
    </vehicle>
    <vType id="L1LCD1351_375" length="5.00" maxSpeed="33.00" vClass="passenger" emissionClass="HBEFA3/PC_G_EU4">
        <param key="customCO2" value="375.08340052631576"/>
    </vType>
    <vehicle id="12" type="L1LCD1351_375" depart="12.00">
        <route edges="78#0 77 30 -10 46 8 7 6 -66 -47 -48 -50#0 -50#1 -51 -52"/>
    </vehicle>
    <vType id="YP5L3U01AC_804" length="5.00" maxSpeed="33.00" vClass="passenger" emissionClass="HBEFA3/PC_G_EU4">
        <param key="customCO2" value="336.83261396666666"/>
    </vType>
    <vehicle id="13" type="YP5L3U01AC_804" depart="13.00">
        <route edges="-19 2 1 -41 -18 -29 -2"/>
    </vehicle>
    <vType id="MKE605_669" length="5.00" maxSpeed="33.00" vClass="passenger" emissionClass="HBEFA3/PC_G_EU4">
        <param key="customCO2" value="297.875"/>
    </vType>
    <vehicle id="14" type="MKE605_669" depart="14.00">
        <route edges="61 -13 -14 -10 -11 15 -28 -29 -2 19"/>
    </vehicle>
    <vType id="veh_6EBPYTG2-042_906" length="5.00" maxSpeed="33.00" vClass="passenger" emissionClass="HBEFA3/PC_G_EU4">
        <param key="customCO2" value="277.0153475875"/>
    </vType>
    <vehicle id="15" type="veh_6EBPYTG2-042_906" depart="15.00">
        <route edges="50#1 50#0 49 80 79 78#1 78#0 77 24 4"/>
    </vehicle>
    <vType id="HG5L3U01AC_622" length="5.00" maxSpeed="33.00" vClass="passenger" emissionClass="HBEFA3/PC_G_EU4">
        <param key="customCO2" value="301.01099999999997"/>
    </vType>
    <vehicle id="16" type="HG5L3U01AC_622" depart="16.00">
        <route edges="-81 -60 52 51 50#1 50#0 49 80 79"/>
    </vehicle>
    <vType id="STE248_1157" length="5.00" maxSpeed="33.00" vClass="passenger" emissionClass="HBEFA3/PC_G_EU4">
        <param key="customCO2" value="410.63157894736844"/>
    </vType>
    <vehicle id="17" type="STE248_1157" depart="17.00">
        <route edges="-61 3 2 1"/>
    </vehicle>
    <vType id="MD4N0AU17A2_647" length="5.00" maxSpeed="33.00" vClass="passenger" emissionClass="HBEFA3/PC_G_EU4">
        <param key="customCO2" value="227.17316033571427"/>
    </vType>
    <vehicle id="18" type="MD4N0AU17A2_647" depart="18.00">
        <route edges="52 51 50#1 50#0 49 80 79 78#1 78#0 77 24 23 22 21 20"/>
    </vehicle>
    <vType id="veh_53XETPA518_320" length="5.00" maxSpeed="33.00" vClass="passenger" emissionClass="HBEFA3/PC_G_EU4">
        <param key="customCO2" value="414.1565"/>
    </vType>
    <vehicle id="19" type="veh_53XETPA518_320" depart="19.00">
        <route edges="65 -0 -1 29 28 -25 -38 -12 -13 16"/>
    </vehicle>
    <vType id="veh_06-UZ1A_855" length="5.00" maxSpeed="33.00" vClass="passenger" emissionClass="HBEFA3/PC_G_EU4">
        <param key="customCO2" value="354.814339175"/>
    </vType>
    <vehicle id="20" type="veh_06-UZ1A_855" depart="20.00">
        <route edges="31 30 -10 -11 -36 -38 -12"/>
    </vehicle>
    <vType id="P157025_110" length="5.00" maxSpeed="33.00" vClass="passenger" emissionClass="HBEFA3/PC_G_EU4">
        <param key="customCO2" value="343.5975"/>
    </vType>
    <vehicle id="21" type="P157025_110" depart="21.00">
        <route edges="-38 -12 -13 -14 -10 46 8 7 6 -66 -47"/>
    </vehicle>
    <vType id="DGA00010_448" length="5.00" maxSpeed="33.00" vClass="passenger" emissionClass="HBEFA3/PC_G_EU4">
        <param key="customCO2" value="330.57725"/>
    </vType>
    <vehicle id="22" type="DGA00010_448" depart="22.00">
        <route edges="-18 28 -25 -38"/>
    </vehicle>
    <vType id="EB16-ZA42_931" length="5.00" maxSpeed="33.00" vClass="passenger" emissionClass="HBEFA3/PC_G_EU4">
        <param key="customCO2" value="247.63574568888887"/>
    </vType>
    <vehicle id="23" type="EB16-ZA42_931" depart="23.00">
        <route edges="-2 -3 -44"/>
    </vehicle>
    <vType id="APA00013_505" length="5.00" maxSpeed="33.00" vClass="passenger" emissionClass="HBEFA3/PC_G_EU4">
        <param key="customCO2" value="278.8095"/>
    </vType>
    <vehicle id="24" type="APA00013_505" depart="24.00">
        <route edges="22 21 62 -4 -24 -76 -78#0 -78#1 -79 -80 -48 -50#0 -50#1 -51 -52 -81 -60"/>
    </vehicle>
    <vType id="EBV01A_599" length="5.00" maxSpeed="33.00" vClass="passenger" emissionClass="HBEFA3/PC_G_EU4">
        <param key="customCO2" value="317.285"/>
    </vType>
    <vehicle id="25" type="EBV01A_599" depart="25.00">
        <route edges="-60 52 51 50#1 50#0 49 80 79 78#1 78#0 77 -31 -32"/>
    </vehicle>
    <vType id="SRB071_1101" length="5.00" maxSpeed="33.00" vClass="passenger" emissionClass="HBEFA3/PC_G_EU4">
        <param key="customCO2" value="322.3"/>
    </vType>
    <vehicle id="26" type="SRB071_1101" depart="26.00">
        <route edges="-43 -8 34 15 -28 -29 1 0 -65 -5 75"/>
    </vehicle>
    <vType id="KHE480_1136" length="5.00" maxSpeed="33.00" vClass="passenger" emissionClass="HBEFA3/PC_G_EU4">
        <param key="customCO2" value="232.15217391304347"/>
    </vType>
    <vehicle id="27" type="KHE480_1136" depart="27.00">
        <route edges="23 22 21 20 2"/>
    </vehicle>
    <vType id="ER317196_495" length="5.00" maxSpeed="33.00" vClass="passenger" emissionClass="HBEFA3/PC_G_EU4">
        <param key="customCO2" value="149.1976456"/>
    </vType>
    <vehicle id="28" type="ER317196_495" depart="28.00">
        <route edges="-29 -2 -3 -44 -22 -23 4"/>
    </vehicle>
    <vType id="veh_10-UK3A_1366" length="5.00" maxSpeed="33.00" vClass="passenger" emissionClass="HBEFA3/PC_G_EU4">
        <param key="customCO2" value="421.5610823142857"/>
    </vType>
    <vehicle id="29" type="veh_10-UK3A_1366" depart="29.00">
        <route edges="-28 -29 1 -41 -18 28 -25 -61"/>
    </vehicle>
    <vType id="UX33509_1262" length="5.00" maxSpeed="33.00" vClass="passenger" emissionClass="HBEFA3/PC_G_EU4">
        <param key="customCO2" value="440.6383333333333"/>
    </vType>
    <vehicle id="30" type="UX33509_1262" depart="30.00">
        <route edges="8 7 6 -66 -47 80 79 78#1 78#0 77 24 23 22"/>
    </vehicle>
    <vType id="MLE432_680" length="5.00" maxSpeed="33.00" vClass="passenger" emissionClass="HBEFA3/PC_G_EU4">
        <param key="customCO2" value="327.75"/>
    </vType>
    <vehicle id="31" type="MLE432_680" depart="31.00">
        <route edges="1 -41 -18 28 -25 -61 3"/>
    </vehicle>
    <vType id="MKE550_677" length="5.00" maxSpeed="33.00" vClass="passenger" emissionClass="HBEFA3/PC_G_EU4">
        <param key="customCO2" value="310.11764705882354"/>
    </vType>
    <vehicle id="32" type="MKE550_677" depart="32.00">
        <route edges="61 -13 16 -30 -76 -78#0 -78#1 -79 -80 47"/>
    </vehicle>
    <vType id="veh_144HV712DA_343" length="5.00" maxSpeed="33.00" vClass="passenger" emissionClass="HBEFA3/PC_G_EU4">
        <param key="customCO2" value="216.0176754261905"/>
    </vType>
    <vehicle id="33" type="veh_144HV712DA_343" depart="33.00">
        <route edges="-38 -12 -13 -14 -10 -11"/>
    </vehicle>
    <vType id="HRE757_717" length="5.00" maxSpeed="33.00" vClass="passenger" emissionClass="HBEFA3/PC_G_EU4">
        <param key="customCO2" value="299.25"/>
    </vType>
    <vehicle id="34" type="HRE757_717" depart="34.00">
        <route edges="-50#0 -50#1 -51 -52 -81 -60 52 51 50#1 50#0 49 80 79 78#1 78#0 77 30 -10 -11 15 -28 18 -42 -43"/>
    </vehicle>
    <vType id="EDV-06-LE08_867" length="5.00" maxSpeed="33.00" vClass="passenger" emissionClass="HBEFA3/PC_G_EU4">
        <param key="customCO2" value="324.37635714285716"/>
    </vType>
    <vehicle id="35" type="EDV-06-LE08_867" depart="35.00">
        <route edges="-32 -68 -69 4 3 2 1 0 -65 -5 75"/>
    </vehicle>
    <vType id="LTE526_662" length="5.00" maxSpeed="33.00" vClass="passenger" emissionClass="HBEFA3/PC_G_EU4">
        <param key="customCO2" value="329.5"/>
    </vType>
    <vehicle id="36" type="LTE526_662" depart="36.00">
        <route edges="66 65 -0 -1 29 28 -25 -38 -12 -13 16 -30 -76 -78#0 -78#1 -79 -80 -48 -50#0"/>
    </vehicle>
    <vType id="MME231_674" length="5.00" maxSpeed="33.00" vClass="passenger" emissionClass="HBEFA3/PC_G_EU4">
        <param key="customCO2" value="350.0"/>
    </vType>
    <vehicle id="37" type="MME231_674" depart="37.00">
        <route edges="24 4 3 2 1 0 -65"/>
    </vehicle>
    <vType id="W212E55-Z0019_1000" length="5.00" maxSpeed="33.00" vClass="passenger" emissionClass="HBEFA3/PC_G_EU4">
        <param key="customCO2" value="375.355"/>
    </vType>
    <vehicle id="38" type="W212E55-Z0019_1000" depart="38.00">
        <route edges="7 6 -66 -47 80 79 78#1 78#0 77 30 -10 -11 15 -28 18 17 -74"/>
    </vehicle>
    <vType id="JK2N8GF01A1_625" length="5.00" maxSpeed="33.00" vClass="passenger" emissionClass="HBEFA3/PC_G_EU4">
        <param key="customCO2" value="201.41950526666668"/>
    </vType>
    <vehicle id="39" type="JK2N8GF01A1_625" depart="39.00">
        <route edges="-43 -8 34 15 -28 -29 1 -41"/>
    </vehicle>
    <vType id="EC5A1A_576" length="5.00" maxSpeed="33.00" vClass="passenger" emissionClass="HBEFA3/PC_G_EU4">
        <param key="customCO2" value="266.21"/>
    </vType>
    <vehicle id="40" type="EC5A1A_576" depart="40.00">
        <route edges="15 -28 18 -42 -43"/>
    </vehicle>
    <vType id="EGLV1A_606" length="5.00" maxSpeed="33.00" vClass="passenger" emissionClass="HBEFA3/PC_G_EU4">
        <param key="customCO2" value="298.22125"/>
    </vType>
    <vehicle id="41" type="EGLV1A_606" depart="41.00">
        <route edges="17 -74 -75 -7 -8 34 -36 -38 -12 -13 16 -30 24 69"/>
    </vehicle>
    <vType id="MLE435_676" length="5.00" maxSpeed="33.00" vClass="passenger" emissionClass="HBEFA3/PC_G_EU4">
        <param key="customCO2" value="331.0"/>
    </vType>
    <vehicle id="42" type="MLE435_676" depart="42.00">
        <route edges="-65 -5 -7 -8 34 -36"/>
    </vehicle>
    <vType id="veh_206GAE2010_246" length="5.00" maxSpeed="33.00" vClass="passenger" emissionClass="HBEFA3/PC_G_EU4">
        <param key="customCO2" value="283.48119175342464"/>
    </vType>
    <vehicle id="43" type="veh_206GAE2010_246" depart="43.00">
        <route edges="80 79 78#1 78#0 77 -31 -58 -69 -24 -76 -78#0 -78#1 -79"/>
    </vehicle>
    <vType id="X222E60TC-Z5014-1_1042" length="5.00" maxSpeed="33.00" vClass="passenger" emissionClass="HBEFA3/PC_G_EU4">
        <param key="customCO2" value="438.57500000000005"/>
    </vType>
    <vehicle id="44" type="X222E60TC-Z5014-1_1042" depart="44.00">
        <route edges="-19 -3 61 -13"/>
    </vehicle>
    <vType id="ECFE-991GT3RS-16_1219" length="5.00" maxSpeed="33.00" vClass="passenger" emissionClass="HBEFA3/PC_G_EU4">
        <param key="customCO2" value="407.555"/>
    </vType>
    <vehicle id="45" type="ECFE-991GT3RS-16_1219" depart="45.00">
        <route edges="-20 62 -44 21"/>
    </vehicle>
    <vType id="veh_12-ZW3H_1343" length="5.00" maxSpeed="33.00" vClass="passenger" emissionClass="HBEFA3/PC_G_EU4">
        <param key="customCO2" value="158.16545382666666"/>
    </vType>
    <vehicle id="46" type="veh_12-ZW3H_1343" depart="46.00">
        <route edges="49 80 79 78#1 78#0 77 -31 -32 -68"/>
    </vehicle>
    <vType id="MD1N8GF29A1_623" length="5.00" maxSpeed="33.00" vClass="passenger" emissionClass="HBEFA3/PC_G_EU4">
        <param key="customCO2" value="203.47916666666666"/>
    </vType>
    <vehicle id="47" type="MD1N8GF29A1_623" depart="47.00">
        <route edges="-14 -10 -11 15 -28 -29 1 -41 -18 28 -25 -61"/>
    </vehicle>
    <vType id="L4DS13056_1254" length="5.00" maxSpeed="33.00" vClass="passenger" emissionClass="HBEFA3/PC_G_EU4">
        <param key="customCO2" value="343.57500000000005"/>
    </vType>
    <vehicle id="48" type="L4DS13056_1254" depart="48.00">
        <route edges="80 79 78#1 78#0 77 -31 -58 -69 -24 -76 -78#0 -78#1 -79 -80"/>
    </vehicle>
    <vType id="HG2L3AU55B5_619" length="5.00" maxSpeed="33.00" vClass="passenger" emissionClass="HBEFA3/PC_G_EU4">
        <param key="customCO2" value="299.2750761941176"/>
    </vType>
    <vehicle id="49" type="HG2L3AU55B5_619" depart="49.00">
        <route edges="78#1 78#0 77 24 69 68 67 66 65"/>
    </vehicle>
    <vType id="ZFFFF60L070135762_420" length="5.00" maxSpeed="33.00" vClass="passenger" emissionClass="HBEFA3/PC_G_EU4">
        <param key="customCO2" value="551.78775"/>
    </vType>
    <vehicle id="50" type="ZFFFF60L070135762_420" depart="50.00">
        <route edges="-1 29 18 -42 -43 -8 34"/>
    </vehicle>
    <vType id="C218E46DETC-Z5030_974" length="5.00" maxSpeed="33.00" vClass="passenger" emissionClass="HBEFA3/PC_G_EU4">
        <param key="customCO2" value="386.83768806"/>
    </vType>
    <vehicle id="51" type="C218E46DETC-Z5030_974" depart="51.00">
        <route edges="29 28 -25 -38 -12 -13 16 -30 -76 -78#0 -78#1 -79 -80 -48 -50#0 -50#1 -51 -52 -81"/>
    </vehicle>
    <vType id="HJE319_1181" length="5.00" maxSpeed="33.00" vClass="passenger" emissionClass="HBEFA3/PC_G_EU4">
        <param key="customCO2" value="209.0"/>
    </vType>
    <vehicle id="52" type="HJE319_1181" depart="52.00">
        <route edges="-43 -8 34 -36 -38 -12 -13 16 -30 24 23 22"/>
    </vehicle>
    <vType id="A207E46DETC-Z4028-1_1003" length="5.00" maxSpeed="33.00" vClass="passenger" emissionClass="HBEFA3/PC_G_EU4">
        <param key="customCO2" value="346.033375"/>
    </vType>
    <vehicle id="53" type="A207E46DETC-Z4028-1_1003" depart="53.00">
        <route edges="-20 62 -4 -24 -31 -58 -69"/>
    </vehicle>
    <vType id="veh_201620_1422" length="5.00" maxSpeed="33.00" vClass="passenger" emissionClass="HBEFA3/PC_G_EU4">
        <param key="customCO2" value="268.0"/>
    </vType>
    <vehicle id="54" type="veh_201620_1422" depart="54.00">
        <route edges="-73 -17 41 0 -65 -66 -47 80 79 78#1 78#0"/>
    </vehicle>
    <vType id="E9N02A_609" length="5.00" maxSpeed="33.00" vClass="passenger" emissionClass="HBEFA3/PC_G_EU4">
        <param key="customCO2" value="347.29499999999996"/>
    </vType>
    <vehicle id="55" type="E9N02A_609" depart="55.00">
        <route edges="66 65 -0 -1 29 18 -42 -43"/>
    </vehicle>
    <vType id="EG1M1C_592" length="5.00" maxSpeed="33.00" vClass="passenger" emissionClass="HBEFA3/PC_G_EU4">
        <param key="customCO2" value="225.9855878"/>
    </vType>
    <vehicle id="56" type="EG1M1C_592" depart="56.00">
        <route edges="-78#1 -79 -80 47 66 65 -0 -1 -2 -3"/>
    </vehicle>
    <vType id="HRE749_698" length="5.00" maxSpeed="33.00" vClass="passenger" emissionClass="HBEFA3/PC_G_EU4">
        <param key="customCO2" value="297.0"/>
    </vType>
    <vehicle id="57" type="HRE749_698" depart="57.00">
        <route edges="7 6 -66 -47 -48 -50#0 -50#1 -51 -52 -81 -60 52 51 50#1 50#0 49 47 66"/>
    </vehicle>
    <vType id="SKB308_1187" length="5.00" maxSpeed="33.00" vClass="passenger" emissionClass="HBEFA3/PC_G_EU4">
        <param key="customCO2" value="470.72093023255815"/>
    </vType>
    <vehicle id="58" type="SKB308_1187" depart="58.00">
        <route edges="-48 -50#0 -50#1 -51 -52 -81 -60 52 51 50#1 50#0 49 80 79 78#1 78#0 77 24 23 22"/>
    </vehicle>
    <vType id="L5UFF9056_359" length="5.00" maxSpeed="33.00" vClass="passenger" emissionClass="HBEFA3/PC_G_EU4">
        <param key="customCO2" value="292.0282825"/>
    </vType>
    <vehicle id="59" type="L5UFF9056_359" depart="59.00">
        <route edges="2 29 28 -25"/>
    </vehicle>
    <vType id="FHB033_1104" length="5.00" maxSpeed="33.00" vClass="passenger" emissionClass="HBEFA3/PC_G_EU4">
        <param key="customCO2" value="321.9019607843137"/>
    </vType>
    <vehicle id="60" type="FHB033_1104" depart="60.00">
        <route edges="43 42 41 0 -65 -66 -47 -48 -50#0 -50#1 -51 -52 -81"/>
    </vehicle>
    <vType id="LME538_667" length="5.00" maxSpeed="33.00" vClass="passenger" emissionClass="HBEFA3/PC_G_EU4">
        <param key="customCO2" value="425.11538461538464"/>
    </vType>
    <vehicle id="61" type="LME538_667" depart="61.00">
        <route edges="47 -67 33 31 -76 -78#0 -78#1 -79 -80"/>
    </vehicle>
    <vType id="DBE-MP42_1291" length="5.00" maxSpeed="33.00" vClass="passenger" emissionClass="HBEFA3/PC_G_EU4">
        <param key="customCO2" value="250.107327925"/>
    </vType>
    <vehicle id="62" type="DBE-MP42_1291" depart="62.00">
        <route edges="-0 -1 29 28 -25 -38 -12 -13 16 -30 -76 -78#0 -78#1 -79 -80 -48 -50#0 -50#1"/>
    </vehicle>
    <vType id="L4WKT9875_759" length="5.00" maxSpeed="33.00" vClass="passenger" emissionClass="HBEFA3/PC_G_EU4">
        <param key="customCO2" value="329.9584517269231"/>
    </vType>
    <vehicle id="63" type="L4WKT9875_759" depart="63.00">
        <route edges="-10 -11 15 -28 -29 1 0 -65 -5 75 74"/>
    </vehicle>
    <vType id="W212E35DEH_Hyb-Z3017_999" length="5.00" maxSpeed="33.00" vClass="passenger" emissionClass="HBEFA3/PC_G_EU4">
        <param key="customCO2" value="283.7207142857143"/>
    </vType>
    <vehicle id="64" type="W212E35DEH_Hyb-Z3017_999" depart="64.00">
        <route edges="67 -47 -48 -50#0 -50#1 -51 -52 -81 -60 52"/>
    </vehicle>
    <vType id="R172E55DE-Z2011_1067" length="5.00" maxSpeed="33.00" vClass="passenger" emissionClass="HBEFA3/PC_G_EU4">
        <param key="customCO2" value="369.6333333333333"/>
    </vType>
    <vehicle id="65" type="R172E55DE-Z2011_1067" depart="65.00">
        <route edges="-5 -7 -8 34 -36 -38 -12 -13 -14"/>
    </vehicle>
    <vType id="A696623_94" length="5.00" maxSpeed="33.00" vClass="passenger" emissionClass="HBEFA3/PC_G_EU4">
        <param key="customCO2" value="290.24448309045647"/>
    </vType>
    <vehicle id="66" type="A696623_94" depart="66.00">
        <route edges="66 65 -0 -1 29 28 -25 -38 -12 -13 -14 -10 46 8 7 6 -66 -47 80 79 78#1 78#0 77"/>
    </vehicle>
    <vType id="veh_60XEGPA411_307" length="5.00" maxSpeed="33.00" vClass="passenger" emissionClass="HBEFA3/PC_G_EU4">
        <param key="customCO2" value="555.86375"/>
    </vType>
    <vehicle id="67" type="veh_60XEGPA411_307" depart="67.00">
        <route edges="-19 -3 -4 -24 -76 -78#0"/>
    </vehicle>
    <vType id="KH6T0AU01AC_779" length="5.00" maxSpeed="33.00" vClass="passenger" emissionClass="HBEFA3/PC_G_EU4">
        <param key="customCO2" value="382.63838333333337"/>
    </vType>
    <vehicle id="68" type="KH6T0AU01AC_779" depart="68.00">
        <route edges="-17 41 0 -73 -74 -75 -7 43"/>
    </vehicle>
    <vType id="VX10HWS_817" length="5.00" maxSpeed="33.00" vClass="passenger" emissionClass="HBEFA3/PC_G_EU4">
        <param key="customCO2" value="464.0725"/>
    </vType>
    <vehicle id="69" type="VX10HWS_817" depart="69.00">
        <route edges="43 42 -18 28 -25 -61 -44 -22"/>
    </vehicle>
    <vType id="DNB140_686" length="5.00" maxSpeed="33.00" vClass="passenger" emissionClass="HBEFA3/PC_G_EU4">
        <param key="customCO2" value="315.61224489795916"/>
    </vType>
    <vehicle id="70" type="DNB140_686" depart="70.00">
        <route edges="-75 -7 43 42 41 0"/>
    </vehicle>
    <vType id="KHEH11_1133" length="5.00" maxSpeed="33.00" vClass="passenger" emissionClass="HBEFA3/PC_G_EU4">
        <param key="customCO2" value="230.5"/>
    </vType>
    <vehicle id="71" type="KHEH11_1133" depart="71.00">
        <route edges="-43 -8 34 -36 -38 -12 -13 16 -30 -76 -78#0 -78#1 -79 -80 47 66"/>
    </vehicle>
    <vType id="BBD3-3.7-J-963_936" length="5.00" maxSpeed="33.00" vClass="passenger" emissionClass="HBEFA3/PC_G_EU4">
        <param key="customCO2" value="387.3482"/>
    </vType>
    <vehicle id="72" type="BBD3-3.7-J-963_936" depart="72.00">
        <route edges="-68 -69 -24 -31 -32"/>
    </vehicle>
    <vehicle id="73" type="C216E55TC-Z7014-1_966" depart="73.00">
        <route edges="-81 -60 52 51 50#1 50#0 49 80 79 78#1 78#0 77 24 4"/>
    </vehicle>
    <vType id="V8WKJ4193_762" length="5.00" maxSpeed="33.00" vClass="passenger" emissionClass="HBEFA3/PC_G_EU4">
        <param key="customCO2" value="596.6299038999999"/>
    </vType>
    <vehicle id="74" type="V8WKJ4193_762" depart="74.00">
        <route edges="-31 -58 -69 -24 -76 -78#0 -78#1 -79 -80 -48 -50#0"/>
    </vehicle>
    <vType id="ECFE-991SKit-PDK-13_1214" length="5.00" maxSpeed="33.00" vClass="passenger" emissionClass="HBEFA3/PC_G_EU4">
        <param key="customCO2" value="312.815"/>
    </vType>
    <vehicle id="75" type="ECFE-991SKit-PDK-13_1214" depart="75.00">
        <route edges="80 79 78#1 78#0 77 24 23"/>
    </vehicle>
    <vType id="veh_400TT464_62" length="5.00" maxSpeed="33.00" vClass="passenger" emissionClass="HBEFA3/PC_G_EU4">
        <param key="customCO2" value="448.1225"/>
    </vType>
    <vehicle id="76" type="veh_400TT464_62" depart="76.00">
        <route edges="-69 -24 30 -10 -11 15 -28 18 -42 -43 -8"/>
    </vehicle>
    <vType id="KPB089_1171" length="5.00" maxSpeed="33.00" vClass="passenger" emissionClass="HBEFA3/PC_G_EU4">
        <param key="customCO2" value="215.25"/>
    </vType>
    <vehicle id="77" type="KPB089_1171" depart="77.00">
        <route edges="-21 -22 -23 -24 30 -10 -11 -36 -38"/>
    </vehicle>
    <vType id="L4WKJ4240_761" length="5.00" maxSpeed="33.00" vClass="passenger" emissionClass="HBEFA3/PC_G_EU4">
        <param key="customCO2" value="453.46698"/>
    </vType>
    <vehicle id="78" type="L4WKJ4240_761" depart="78.00">
        <route edges="-52 -81 -60 52 51 50#1 50#0 49 80 79 78#1 78#0 77 30 -10 -11 15 -28 18 17"/>
    </vehicle>
    <vType id="C207E35DEH-Z2026-2_986" length="5.00" maxSpeed="33.00" vClass="passenger" emissionClass="HBEFA3/PC_G_EU4">
        <param key="customCO2" value="306.6"/>
    </vType>
    <vehicle id="79" type="C207E35DEH-Z2026-2_986" depart="79.00">
        <route edges="-38 -12 -13 -14 -10 -11 -36"/>
    </vehicle>
    <vType id="BY60961_234" length="5.00" maxSpeed="33.00" vClass="passenger" emissionClass="HBEFA3/PC_G_EU4">
        <param key="customCO2" value="531.0"/>
    </vType>
    <vehicle id="80" type="BY60961_234" depart="80.00">
        <route edges="-17 -18 28 -25 -61 -44 21"/>
    </vehicle>
    <vType id="veh_16-GL3H_853" length="5.00" maxSpeed="33.00" vClass="passenger" emissionClass="HBEFA3/PC_G_EU4">
        <param key="customCO2" value="235.0317762076923"/>
    </vType>
    <vehicle id="81" type="veh_16-GL3H_853" depart="81.00">
        <route edges="-38 -12 -13 16 -30 24 69"/>
    </vehicle>
    <vType id="KH4L8GU23B2_780" length="5.00" maxSpeed="33.00" vClass="passenger" emissionClass="HBEFA3/PC_G_EU4">
        <param key="customCO2" value="336.1107"/>
    </vType>
    <vehicle id="82" type="KH4L8GU23B2_780" depart="82.00">
        <route edges="62 3 2 1 0 -73 -17"/>
    </vehicle>
    <vType id="veh_9LR8-RMQ_41" length="5.00" maxSpeed="33.00" vClass="passenger" emissionClass="HBEFA3/PC_G_EU4">
        <param key="customCO2" value="539.822717112"/>
    </vType>
    <vehicle id="83" type="veh_9LR8-RMQ_41" depart="83.00">
        <route edges="-4 23 22 21 20 19 28"/>
    </vehicle>
    <vType id="V221E35-Z0025_1049" length="5.00" maxSpeed="33.00" vClass="passenger" emissionClass="HBEFA3/PC_G_EU4">
        <param key="customCO2" value="310.28486350000003"/>
    </vType>
    <vehicle id="84" type="V221E35-Z0025_1049" depart="84.00">
        <route edges="-32 -68 -69 4 -44 -22 -23"/>
    </vehicle>
    <vType id="C996403_160" length="5.00" maxSpeed="33.00" vClass="passenger" emissionClass="HBEFA3/PC_G_EU4">
        <param key="customCO2" value="355.81"/>
    </vType>
    <vehicle id="85" type="C996403_160" depart="85.00">
        <route edges="75 -59 -43 -8 34 -36 -38 -12 -13 16"/>
    </vehicle>
    <vType id="SRE298_1131" length="5.00" maxSpeed="33.00" vClass="passenger" emissionClass="HBEFA3/PC_G_EU4">
        <param key="customCO2" value="400.97520661157023"/>
    </vType>
    <vehicle id="86" type="SRE298_1131" depart="86.00">
        <route edges="-75 -7 -8 34 -36 -38 -12 -13 16 -30 -76 -78#0 -78#1 -79 -80 47"/>
    </vehicle>
    <vType id="DUB3-3.5-J-202_446" length="5.00" maxSpeed="33.00" vClass="passenger" emissionClass="HBEFA3/PC_G_EU4">
        <param key="customCO2" value="359.8948888888889"/>
    </vType>
    <vehicle id="87" type="DUB3-3.5-J-202_446" depart="87.00">
        <route edges="50#1 50#0 49 80 79 78#1 78#0 77 30 -10 -11 -36 -38 -12 -13 16 -30"/>
    </vehicle>
    <vType id="veh_201116_1436" length="5.00" maxSpeed="33.00" vClass="passenger" emissionClass="HBEFA3/PC_G_EU4">
        <param key="customCO2" value="326.0"/>
    </vType>
    <vehicle id="88" type="veh_201116_1436" depart="88.00">
        <route edges="-2 -3 -4 -24 -31 -58 -69"/>
    </vehicle>
    <vType id="A745500_101" length="5.00" maxSpeed="33.00" vClass="passenger" emissionClass="HBEFA3/PC_G_EU4">
        <param key="customCO2" value="285.08"/>
    </vType>
    <vehicle id="89" type="A745500_101" depart="89.00">
        <route edges="-68 -69 -24 30 -10 -11 15 -28 18 17 -74"/>
    </vehicle>
    <vType id="veh_53XECUA000_303" length="5.00" maxSpeed="33.00" vClass="passenger" emissionClass="HBEFA3/PC_G_EU4">
        <param key="customCO2" value="371.44925"/>
    </vType>
    <vehicle id="90" type="veh_53XECUA000_303" depart="90.00">
        <route edges="4 3 2 29"/>
    </vehicle>
    <vType id="BBA00020_441" length="5.00" maxSpeed="33.00" vClass="passenger" emissionClass="HBEFA3/PC_G_EU4">
        <param key="customCO2" value="315.7615"/>
    </vType>
    <vehicle id="91" type="BBA00020_441" depart="91.00">
        <route edges="8 7 6 -66 -47 80 79 78#1 78#0 77 30 -10 -11 15 -28 -29 -2"/>
    </vehicle>
    <vType id="veh_62CPFE1202_259" length="5.00" maxSpeed="33.00" vClass="passenger" emissionClass="HBEFA3/PC_G_EU4">
        <param key="customCO2" value="414.27329032258064"/>
    </vType>
    <vehicle id="92" type="veh_62CPFE1202_259" depart="92.00">