<?xml version="1.0" encoding="UTF-8"?>

<!-- generated on 2025-11-25 18:04:11 by Eclipse SUMO duarouter Version 1.24.0
<duarouterConfiguration xmlns:xsi="http://www.w3.org/2001/XMLSchema-instance" xsi:noNamespaceSchemaLocation="http://sumo.dlr.de/xsd/duarouterConfiguration.xsd">

    <input>
        <net-file value="C:\Users\Zander Erwin\Documents\Projects\Senior-Project\SUMO\Rev-4\Town03.net.xml"/>
        <additional-files value="C:\Users\Zander Erwin\Documents\Projects\Senior-Project\SUMO\Rev-4\vtypes.xml"/>
        <route-files value="C:\Users\Zander Erwin\Documents\Projects\Senior-Project\SUMO\Rev-4\custom.trips.xml"/>
    </input>

    <output>
        <output-file value="C:\Users\Zander Erwin\Documents\Projects\Senior-Project\SUMO\Rev-4\custom.rou.xml"/>
    </output>

</duarouterConfiguration>
-->

<routes xmlns:xsi="http://www.w3.org/2001/XMLSchema-instance" xsi:noNamespaceSchemaLocation="http://sumo.dlr.de/xsd/routes_file.xsd">
    <vType id="GKB043_1150" length="5.00" maxSpeed="33.00" vClass="passenger" emissionClass="HBEFA3/PC_G_EU4">
        <param key="customCO2" value="302.5"/>
    </vType>
    <vehicle id="0" type="GKB043_1150" depart="0.00">
        <route edges="22 21 62 61 -13 -14 -10"/>
    </vehicle>
    <vType id="AU373-6-0813_16_18" length="5.00" maxSpeed="33.00" vClass="passenger" emissionClass="HBEFA3/PC_G_EU4">
        <param key="customCO2" value="176.1721178"/>
    </vType>
    <vehicle id="1" type="AU373-6-0813_16_18" depart="1.00">
        <route edges="-44 21 62 61 -13 -14 -10 -11 -36"/>
    </vehicle>
    <vType id="PS4N0AU17A2_800" length="5.00" maxSpeed="33.00" vClass="passenger" emissionClass="HBEFA3/PC_G_EU4">
        <param key="customCO2" value="248.09263955000003"/>
    </vType>
    <vehicle id="2" type="PS4N0AU17A2_800" depart="2.00">
        <route edges="4 3 2 29"/>
    </vehicle>
    <vType id="UB3R6AU15A1_792" length="5.00" maxSpeed="33.00" vClass="passenger" emissionClass="HBEFA3/PC_G_EU4">
        <param key="customCO2" value="205.58975"/>
    </vType>
    <vehicle id="3" type="UB3R6AU15A1_792" depart="3.00">
        <route edges="68 67 66 65 -0 -1 29 -19"/>
    </vehicle>
    <vType id="T739201_1078" length="5.00" maxSpeed="33.00" vClass="passenger" emissionClass="HBEFA3/PC_G_EU4">
        <param key="customCO2" value="206.085"/>
    </vType>
    <vehicle id="4" type="T739201_1078" depart="4.00">
        <route edges="-68 -69 -24 30 -10 -11"/>
    </vehicle>
    <vType id="veh_151GZV4311_340" length="5.00" maxSpeed="33.00" vClass="passenger" emissionClass="HBEFA3/PC_G_EU4">
        <param key="customCO2" value="247.9210867532258"/>
    </vType>
    <vehicle id="5" type="veh_151GZV4311_340" depart="5.00">
        <route edges="-36 -38 -12 -13 16 -30 -76 -78#0 -78#1 -79"/>
    </vehicle>
    <vType id="KJEG37_1177" length="5.00" maxSpeed="33.00" vClass="passenger" emissionClass="HBEFA3/PC_G_EU4">
        <param key="customCO2" value="231.0047372"/>
    </vType>
    <vehicle id="6" type="KJEG37_1177" depart="6.00">
        <route edges="-10 -11 -36 -38 -12 -13 16 -30 -31"/>
    </vehicle>
    <vType id="EB701A_546" length="5.00" maxSpeed="33.00" vClass="passenger" emissionClass="HBEFA3/PC_G_EU4">
        <param key="customCO2" value="309.045"/>
    </vType>
    <vehicle id="7" type="EB701A_546" depart="7.00">
        <route edges="23 22 21 20 2 1 0"/>
    </vehicle>
    <vType id="AR600011_863" length="5.00" maxSpeed="33.00" vClass="passenger" emissionClass="HBEFA3/PC_G_EU4">
        <param key="customCO2" value="186.66125"/>
    </vType>
    <vehicle id="8" type="AR600011_863" depart="8.00">
        <route edges="-36 -38 -12 -13 -14 -10 -11 15 -28 18"/>
    </vehicle>
    <vType id="EBP31A_590" length="5.00" maxSpeed="33.00" vClass="passenger" emissionClass="HBEFA3/PC_G_EU4">
        <param key="customCO2" value="218.795"/>
    </vType>
    <vehicle id="9" type="EBP31A_590" depart="9.00">
        <route edges="50#1 50#0 49 47 66 65 -0"/>
    </vehicle>
    <vType id="CL100196_488" length="5.00" maxSpeed="33.00" vClass="passenger" emissionClass="HBEFA3/PC_G_EU4">
        <param key="customCO2" value="201.4055"/>
    </vType>
    <vehicle id="10" type="CL100196_488" depart="10.00">
        <route edges="50#1 50#0 49 80 79 78#1 78#0 77 30"/>
    </vehicle>
    <vType id="veh_10-AF1H_830" length="5.00" maxSpeed="33.00" vClass="passenger" emissionClass="HBEFA3/PC_G_EU4">
        <param key="customCO2" value="186.19112809166666"/>
    </vType>
    <vehicle id="11" type="veh_10-AF1H_830" depart="11.00">
        <route edges="-52 -81 -60 52 51 50#1 50#0 49 47 66 65 -0 -1 29 28 -25"/>
    </vehicle>
    <vType id="EGBB1C_560" length="5.00" maxSpeed="33.00" vClass="passenger" emissionClass="HBEFA3/PC_G_EU4">
        <param key="customCO2" value="190.5014238090909"/>
    </vType>
    <vehicle id="12" type="EGBB1C_560" depart="12.00">
        <route edges="78#0 77 30 -10 46 8 7 6 -66 -47 -48 -50#0 -50#1 -51 -52"/>
    </vehicle>
    <vType id="KHC863_1134" length="5.00" maxSpeed="33.00" vClass="passenger" emissionClass="HBEFA3/PC_G_EU4">
        <param key="customCO2" value="230.5"/>
    </vType>
    <vehicle id="13" type="KHC863_1134" depart="13.00">
        <route edges="-19 2 1 -41 -18 -29 -2"/>
    </vehicle>
    <vType id="BRE217_1161" length="5.00" maxSpeed="33.00" vClass="passenger" emissionClass="HBEFA3/PC_G_EU4">
        <param key="customCO2" value="281.0"/>
    </vType>
    <vehicle id="14" type="BRE217_1161" depart="14.00">
        <route edges="61 -13 16 -30 24 4 3 19"/>
    </vehicle>
    <vType id="DBF-DL14_1302" length="5.00" maxSpeed="33.00" vClass="passenger" emissionClass="HBEFA3/PC_G_EU4">
        <param key="customCO2" value="246.27808869"/>
    </vType>
    <vehicle id="15" type="DBF-DL14_1302" depart="15.00">
        <route edges="50#1 50#0 49 80 79 78#1 78#0 77 24 4"/>
    </vehicle>
    <vType id="veh_3066K77727_250" length="5.00" maxSpeed="33.00" vClass="passenger" emissionClass="HBEFA3/PC_G_EU4">
        <param key="customCO2" value="317.15"/>
    </vType>
    <vehicle id="16" type="veh_3066K77727_250" depart="16.00">
        <route edges="-81 -60 52 51 50#1 50#0 49 80 79"/>
    </vehicle>
    <vType id="veh_16-ZV2H_1342" length="5.00" maxSpeed="33.00" vClass="passenger" emissionClass="HBEFA3/PC_G_EU4">
        <param key="customCO2" value="144.12954937368423"/>
    </vType>
    <vehicle id="17" type="veh_16-ZV2H_1342" depart="17.00">
        <route edges="-61 3 2 1"/>
    </vehicle>
    <vType id="W212DE22TC-Z4010-1_979" length="5.00" maxSpeed="33.00" vClass="passenger" emissionClass="HBEFA3/PC_G_EU4">
        <param key="customCO2" value="237.57500000000002"/>
    </vType>
    <vehicle id="18" type="W212DE22TC-Z4010-1_979" depart="18.00">
        <route edges="52 51 50#1 50#0 49 80 79 78#1 78#0 77 24 23 22 21 20"/>
    </vehicle>
    <vType id="veh_241ALP5615_275" length="5.00" maxSpeed="33.00" vClass="passenger" emissionClass="HBEFA3/PC_G_EU4">
        <param key="customCO2" value="274.50607758846155"/>
    </vType>
    <vehicle id="19" type="veh_241ALP5615_275" depart="19.00">
        <route edges="65 -0 -1 29 28 -25 -38 -12 -13 16"/>
    </vehicle>
    <vType id="veh_256W3303_1269" length="5.00" maxSpeed="33.00" vClass="passenger" emissionClass="HBEFA3/PC_G_EU4">
        <param key="customCO2" value="442.5876235555556"/>
    </vType>
    <vehicle id="20" type="veh_256W3303_1269" depart="20.00">
        <route edges="31 30 -10 -11 -36 -38 -12"/>
    </vehicle>
    <vType id="DG611964_879" length="5.00" maxSpeed="33.00" vClass="passenger" emissionClass="HBEFA3/PC_G_EU4">
        <param key="customCO2" value="348.0"/>
    </vType>
    <vehicle id="21" type="DG611964_879" depart="21.00">
        <route edges="-38 -12 -13 -14 -10 46 8 7 6 -66 -47"/>
    </vehicle>
    <vType id="RB4R6AU08A1_620" length="5.00" maxSpeed="33.00" vClass="passenger" emissionClass="HBEFA3/PC_G_EU4">
        <param key="customCO2" value="207.59487275714287"/>
    </vType>
    <vehicle id="22" type="RB4R6AU08A1_620" depart="22.00">
        <route edges="-18 28 -25 -38"/>
    </vehicle>
    <vType id="CL100061_486" length="5.00" maxSpeed="33.00" vClass="passenger" emissionClass="HBEFA3/PC_G_EU4">
        <param key="customCO2" value="207.90560454545457"/>
    </vType>
    <vehicle id="23" type="CL100061_486" depart="23.00">
        <route edges="-2 -3 -44"/>
    </vehicle>
    <vType id="EC1Z1A_562" length="5.00" maxSpeed="33.00" vClass="passenger" emissionClass="HBEFA3/PC_G_EU4">
        <param key="customCO2" value="161.8655"/>
    </vType>
    <vehicle id="24" type="EC1Z1A_562" depart="24.00">
        <route edges="22 21 62 61 -13 16 -30 -76 -78#0 -78#1 -79 -80 -48 -50#0 -50#1 -51 -52 -81 -60"/>
    </vehicle>
    <vType id="veh_11-ZA1H_820" length="5.00" maxSpeed="33.00" vClass="passenger" emissionClass="HBEFA3/PC_G_EU4">
        <param key="customCO2" value="181.92298432857143"/>
    </vType>
    <vehicle id="25" type="veh_11-ZA1H_820" depart="25.00">
        <route edges="-60 52 51 50#1 50#0 49 80 79 78#1 78#0 77 -31 -32"/>
    </vehicle>
    <vType id="veh_08-ZP1M_1354" length="5.00" maxSpeed="33.00" vClass="passenger" emissionClass="HBEFA3/PC_G_EU4">
        <param key="customCO2" value="218.2406692"/>
    </vType>
    <vehicle id="26" type="veh_08-ZP1M_1354" depart="26.00">
        <route edges="-43 -8 34 15 -28 -29 1 0 -65 -5 75"/>
    </vehicle>
    <vType id="veh_361FVP6999_222" length="5.00" maxSpeed="33.00" vClass="passenger" emissionClass="HBEFA3/PC_G_EU4">
        <param key="customCO2" value="365.0664166666667"/>
    </vType>
    <vehicle id="27" type="veh_361FVP6999_222" depart="27.00">
        <route edges="23 22 21 20 2"/>
    </vehicle>
    <vType id="KHE480_1136" length="5.00" maxSpeed="33.00" vClass="passenger" emissionClass="HBEFA3/PC_G_EU4">
        <param key="customCO2" value="232.15217391304347"/>
    </vType>
    <vehicle id="28" type="KHE480_1136" depart="28.00">
        <route edges="-29 -2 -3 -44 -22 -23 4"/>
    </vehicle>
    <vType id="EGAA1C_559" length="5.00" maxSpeed="33.00" vClass="passenger" emissionClass="HBEFA3/PC_G_EU4">
        <param key="customCO2" value="196.04640720909092"/>
    </vType>
    <vehicle id="29" type="EGAA1C_559" depart="29.00">
        <route edges="-28 -29 1 -41 -18 28 -25 -61"/>
    </vehicle>
    <vType id="X204E35DEH-Z3013_1029" length="5.00" maxSpeed="33.00" vClass="passenger" emissionClass="HBEFA3/PC_G_EU4">
        <param key="customCO2" value="353.190554708"/>
    </vType>
    <vehicle id="30" type="X204E35DEH-Z3013_1029" depart="30.00">
        <route edges="8 7 6 -66 -47 80 79 78#1 78#0 77 24 23 22"/>
    </vehicle>
    <vType id="TX95505_1081" length="5.00" maxSpeed="33.00" vClass="passenger" emissionClass="HBEFA3/PC_G_EU4">
        <param key="customCO2" value="210.07999999999998"/>
    </vType>
    <vehicle id="31" type="TX95505_1081" depart="31.00">
        <route edges="1 -41 -18 28 -25 -61 3"/>
    </vehicle>
    <vType id="K10679_727" length="5.00" maxSpeed="33.00" vClass="passenger" emissionClass="HBEFA3/PC_G_EU4">
        <param key="customCO2" value="297.83666666666664"/>
    </vType>
    <vehicle id="32" type="K10679_727" depart="32.00">
        <route edges="61 -13 16 -30 -76 -78#0 -78#1 -79 -80 47"/>
    </vehicle>
    <vType id="FE-991R-16_1221" length="5.00" maxSpeed="33.00" vClass="passenger" emissionClass="HBEFA3/PC_G_EU4">
        <param key="customCO2" value="413.41999999999996"/>
    </vType>
    <vehicle id="33" type="FE-991R-16_1221" depart="33.00">
        <route edges="-38 -12 -13 -14 -10 -11"/>
    </vehicle>
    <vType id="D416003_96" length="5.00" maxSpeed="33.00" vClass="passenger" emissionClass="HBEFA3/PC_G_EU4">
        <param key="customCO2" value="256.3910714285714"/>
    </vType>
    <vehicle id="34" type="D416003_96" depart="34.00">
        <route edges="-50#0 -50#1 -51 -52 -81 -60 52 51 50#1 50#0 49 80 79 78#1 78#0 77 30 -10 -11 15 -28 18 -42 -43"/>
    </vehicle>
    <vType id="veh_14S41810_223" length="5.00" maxSpeed="33.00" vClass="passenger" emissionClass="HBEFA3/PC_G_EU4">
        <param key="customCO2" value="225.29999999999998"/>
    </vType>
    <vehicle id="35" type="veh_14S41810_223" depart="35.00">
        <route edges="-32 -68 -69 4 3 2 1 0 -65 -5 75"/>
    </vehicle>
    <vType id="F453277_115" length="5.00" maxSpeed="33.00" vClass="passenger" emissionClass="HBEFA3/PC_G_EU4">
        <param key="customCO2" value="241.7007355222222"/>
    </vType>
    <vehicle id="36" type="F453277_115" depart="36.00">
        <route edges="66 65 -0 -1 29 28 -25 -38 -12 -13 16 -30 -76 -78#0 -78#1 -79 -80 -48 -50#0"/>
    </vehicle>
    <vType id="YD5N0AU21A2_774" length="5.00" maxSpeed="33.00" vClass="passenger" emissionClass="HBEFA3/PC_G_EU4">
        <param key="customCO2" value="231.17002241607142"/>
    </vType>
    <vehicle id="37" type="YD5N0AU21A2_774" depart="37.00">
        <route edges="24 4 3 2 1 0 -65"/>
    </vehicle>
    <vType id="veh_16X5HV553A_289" length="5.00" maxSpeed="33.00" vClass="passenger" emissionClass="HBEFA3/PC_G_EU4">
        <param key="customCO2" value="224.6505"/>
    </vType>
    <vehicle id="38" type="veh_16X5HV553A_289" depart="38.00">
        <route edges="7 6 -66 -47 80 79 78#1 78#0 77 30 -10 -11 15 -28 18 17 -74"/>
    </vehicle>
    <vType id="L4KLT9422_747" length="5.00" maxSpeed="33.00" vClass="passenger" emissionClass="HBEFA3/PC_G_EU4">
        <param key="customCO2" value="283.79105625"/>
    </vType>
    <vehicle id="39" type="L4KLT9422_747" depart="39.00">
        <route edges="-43 -8 34 15 -28 -29 1 -41"/>
    </vehicle>
    <vType id="CDH1-0.0-L-346_485" length="5.00" maxSpeed="33.00" vClass="passenger" emissionClass="HBEFA3/PC_G_EU4">
        <param key="customCO2" value="212.41598260869566"/>
    </vType>
    <vehicle id="40" type="CDH1-0.0-L-346_485" depart="40.00">
        <route edges="15 -28 18 -42 -43"/>
    </vehicle>
    <vType id="EGLV2A_605" length="5.00" maxSpeed="33.00" vClass="passenger" emissionClass="HBEFA3/PC_G_EU4">
        <param key="customCO2" value="311.51"/>
    </vType>
    <vehicle id="41" type="EGLV2A_605" depart="41.00">
        <route edges="17 -74 -75 -7 -8 34 -36 -38 -12 -13 16 -30 24 69"/>
    </vehicle>
    <vType id="FAPA-RAF_1379" length="5.00" maxSpeed="33.00" vClass="passenger" emissionClass="HBEFA3/PC_G_EU4">
        <param key="customCO2" value="212.390688153125"/>
    </vType>
    <vehicle id="42" type="FAPA-RAF_1379" depart="42.00">
        <route edges="-65 -5 -7 -8 34 -36"/>
    </vehicle>
    <vType id="N09-AE1A_1200" length="5.00" maxSpeed="33.00" vClass="passenger" emissionClass="HBEFA3/PC_G_EU4">
        <param key="customCO2" value="271.149063025"/>
    </vType>
    <vehicle id="43" type="N09-AE1A_1200" depart="43.00">
        <route edges="80 79 78#1 78#0 77 -31 -58 -69 -24 -76 -78#0 -78#1 -79"/>
    </vehicle>
    <vType id="EBTW1C_580" length="5.00" maxSpeed="33.00" vClass="passenger" emissionClass="HBEFA3/PC_G_EU4">
        <param key="customCO2" value="211.32057633333335"/>
    </vType>
    <vehicle id="44" type="EBTW1C_580" depart="44.00">
        <route edges="-19 -3 61 -13"/>
    </vehicle>
    <vType id="veh_135762_419" length="5.00" maxSpeed="33.00" vClass="passenger" emissionClass="HBEFA3/PC_G_EU4">
        <param key="customCO2" value="549.4666666666667"/>
    </vType>
    <vehicle id="45" type="veh_135762_419" depart="45.00">
        <route edges="-20 62 -44 21"/>
    </vehicle>
    <vType id="TD1F0GU04A1_771" length="5.00" maxSpeed="33.00" vClass="passenger" emissionClass="HBEFA3/PC_G_EU4">
        <param key="customCO2" value="237.65287815696203"/>
    </vType>
    <vehicle id="46" type="TD1F0GU04A1_771" depart="46.00">
        <route edges="49 80 79 78#1 78#0 77 -31 -32 -68"/>
    </vehicle>
    <vType id="V8WKJ4193_762" length="5.00" maxSpeed="33.00" vClass="passenger" emissionClass="HBEFA3/PC_G_EU4">
        <param key="customCO2" value="596.6299038999999"/>
    </vType>
    <vehicle id="47" type="V8WKJ4193_762" depart="47.00">
        <route edges="-14 -10 -11 15 -28 -29 1 -41 -18 28 -25 -61"/>
    </vehicle>
    <vType id="EG1M1M_591" length="5.00" maxSpeed="33.00" vClass="passenger" emissionClass="HBEFA3/PC_G_EU4">
        <param key="customCO2" value="215.16666666666666"/>
    </vType>
    <vehicle id="48" type="EG1M1M_591" depart="48.00">
        <route edges="80 79 78#1 78#0 77 -31 -58 -69 -24 -76 -78#0 -78#1 -79 -80"/>
    </vehicle>
    <vType id="F099010_91" length="5.00" maxSpeed="33.00" vClass="passenger" emissionClass="HBEFA3/PC_G_EU4">
        <param key="customCO2" value="213.9175"/>
    </vType>
    <vehicle id="49" type="F099010_91" depart="49.00">
        <route edges="78#1 78#0 77 -31 -58 -69 -24 -76 -78#0 -78#1 -79 -80 47 66 65"/>
    </vehicle>
    <vType id="HTF3FUP110A_783" length="5.00" maxSpeed="33.00" vClass="passenger" emissionClass="HBEFA3/PC_G_EU4">
        <param key="customCO2" value="175.01415"/>
    </vType>
    <vehicle id="50" type="HTF3FUP110A_783" depart="50.00">
        <route edges="-1 29 18 -42 -43 -8 34"/>
    </vehicle>
    <vType id="EG1M1C_592" length="5.00" maxSpeed="33.00" vClass="passenger" emissionClass="HBEFA3/PC_G_EU4">
        <param key="customCO2" value="225.9855878"/>
    </vType>
    <vehicle id="51" type="EG1M1C_592" depart="51.00">
        <route edges="29 28 -25 -38 -12 -13 16 -30 -76 -78#0 -78#1 -79 -80 -48 -50#0 -50#1 -51 -52 -81"/>
    </vehicle>
    <vType id="EBBR1A_545" length="5.00" maxSpeed="33.00" vClass="passenger" emissionClass="HBEFA3/PC_G_EU4">
        <param key="customCO2" value="326.44419573"/>
    </vType>
    <vehicle id="52" type="EBBR1A_545" depart="52.00">
        <route edges="-43 -8 34 -36 -38 -12 -13 16 -30 24 23 22"/>
    </vehicle>
    <vType id="HLF6NAUP11A_639" length="5.00" maxSpeed="33.00" vClass="passenger" emissionClass="HBEFA3/PC_G_EU4">
        <param key="customCO2" value="185.60254343333335"/>
    </vType>
    <vehicle id="53" type="HLF6NAUP11A_639" depart="53.00">
        <route edges="-20 62 61 -13 16 -30 -31 -58 -69"/>
    </vehicle>
    <vType id="veh_201603_1438" length="5.00" maxSpeed="33.00" vClass="passenger" emissionClass="HBEFA3/PC_G_EU4">
        <param key="customCO2" value="298.0"/>
    </vType>
    <vehicle id="54" type="veh_201603_1438" depart="54.00">
        <route edges="-73 -17 41 0 -65 -66 -47 80 79 78#1 78#0"/>
    </vehicle>
    <vType id="veh_14X70057EX_317" length="5.00" maxSpeed="33.00" vClass="passenger" emissionClass="HBEFA3/PC_G_EU4">
        <param key="customCO2" value="211.33598569444445"/>
    </vType>
    <vehicle id="55" type="veh_14X70057EX_317" depart="55.00">
        <route edges="66 65 -0 -1 29 18 -42 -43"/>
    </vehicle>
    <vType id="VX62501_171" length="5.00" maxSpeed="33.00" vClass="passenger" emissionClass="HBEFA3/PC_G_EU4">
        <param key="customCO2" value="195.51000000000002"/>
    </vType>
    <vehicle id="56" type="VX62501_171" depart="56.00">
        <route edges="-78#1 -79 -80 47 66 65 -0 -1 -2 -3"/>
    </vehicle>
    <vehicle id="57" type="veh_11-ZA1H_820" depart="57.00">
        <route edges="7 6 -66 -47 -48 -50#0 -50#1 -51 -52 -81 -60 52 51 50#1 50#0 49 47 66"/>
    </vehicle>
    <vType id="veh_25SPFN1048_310" length="5.00" maxSpeed="33.00" vClass="passenger" emissionClass="HBEFA3/PC_G_EU4">
        <param key="customCO2" value="330.01467447"/>
    </vType>
    <vehicle id="58" type="veh_25SPFN1048_310" depart="58.00">
        <route edges="-48 -50#0 -50#1 -51 -52 -81 -60 52 51 50#1 50#0 49 80 79 78#1 78#0 77 24 23 22"/>
    </vehicle>
    <vType id="L5BUU1783_767" length="5.00" maxSpeed="33.00" vClass="passenger" emissionClass="HBEFA3/PC_G_EU4">
        <param key="customCO2" value="244.1996823142857"/>
    </vType>
    <vehicle id="59" type="L5BUU1783_767" depart="59.00">
        <route edges="2 29 28 -25"/>
    </vehicle>
    <vType id="veh_3A04503_1083" length="5.00" maxSpeed="33.00" vClass="passenger" emissionClass="HBEFA3/PC_G_EU4">
        <param key="customCO2" value="204.83261976923075"/>
    </vType>
    <vehicle id="60" type="veh_3A04503_1083" depart="60.00">
        <route edges="43 42 41 0 -65 -66 -47 -48 -50#0 -50#1 -51 -52 -81"/>
    </vehicle>
    <vType id="D001500_128" length="5.00" maxSpeed="33.00" vClass="passenger" emissionClass="HBEFA3/PC_G_EU4">
        <param key="customCO2" value="245.9425"/>
    </vType>
    <vehicle id="61" type="D001500_128" depart="61.00">
        <route edges="47 -67 33 31 -76 -78#0 -78#1 -79 -80"/>
    </vehicle>
    <vehicle id="62" type="AU373-6-0813_16_18" depart="62.00">
        <route edges="-0 -1 29 28 -25 -38 -12 -13 16 -30 -76 -78#0 -78#1 -79 -80 -48 -50#0 -50#1"/>
    </vehicle>
    <vType id="veh_0EFLFX21-001_942" length="5.00" maxSpeed="33.00" vClass="passenger" emissionClass="HBEFA3/PC_G_EU4">
        <param key="customCO2" value="231.0"/>
    </vType>
    <vehicle id="63" type="veh_0EFLFX21-001_942" depart="63.00">
        <route edges="-10 -11 15 -28 -29 1 0 -65 -5 75 74"/>
    </vehicle>
    <vType id="veh_2418Z46934_284" length="5.00" maxSpeed="33.00" vClass="passenger" emissionClass="HBEFA3/PC_G_EU4">
        <param key="customCO2" value="225.16899999999998"/>
    </vType>
    <vehicle id="64" type="veh_2418Z46934_284" depart="64.00">
        <route edges="67 -47 -48 -50#0 -50#1 -51 -52 -81 -60 52"/>
    </vehicle>
    <vehicle id="65" type="veh_16-ZV2H_1342" depart="65.00">
        <route edges="-5 -7 -8 34 -36 -38 -12 -13 -14"/>
    </vehicle>
    <vType id="veh_2AVP1032_816" length="5.00" maxSpeed="33.00" vClass="passenger" emissionClass="HBEFA3/PC_G_EU4">
        <param key="customCO2" value="464.49"/>
    </vType>
    <vehicle id="66" type="veh_2AVP1032_816" depart="66.00">
        <route edges="66 65 -0 -1 29 18 41 0 -65 -66 -47 80 79 78#1 78#0 77"/>
    </vehicle>
    <vType id="TY10009_1090" length="5.00" maxSpeed="33.00" vClass="passenger" emissionClass="HBEFA3/PC_G_EU4">
        <param key="customCO2" value="227.55605263157892"/>
    </vType>
    <vehicle id="67" type="TY10009_1090" depart="67.00">
        <route edges="-19 -3 61 -13 16 -30 -76 -78#0"/>
    </vehicle>
    <vType id="DUB1-3.7-L-293_461" length="5.00" maxSpeed="33.00" vClass="passenger" emissionClass="HBEFA3/PC_G_EU4">
        <param key="customCO2" value="360.2225"/>
    </vType>
    <vehicle id="68" type="DUB1-3.7-L-293_461" depart="68.00">
        <route edges="-17 41 0 -73 -74 -75 -7 43"/>
    </vehicle>
    <vType id="DR100015_497" length="5.00" maxSpeed="33.00" vClass="passenger" emissionClass="HBEFA3/PC_G_EU4">
        <param key="customCO2" value="242.3634872"/>
    </vType>
    <vehicle id="69" type="DR100015_497" depart="69.00">
        <route edges="43 42 -18 28 -25 -61 -44 -22"/>
    </vehicle>
    <vType id="UX33509_1263" length="5.00" maxSpeed="33.00" vClass="passenger" emissionClass="HBEFA3/PC_G_EU4">
        <param key="customCO2" value="536.868"/>
    </vType>
    <vehicle id="70" type="UX33509_1263" depart="70.00">
        <route edges="-75 -7 43 42 41 0"/>
    </vehicle>
    <vehicle id="71" type="EG1M1M_591" depart="71.00">
        <route edges="-43 -8 34 -36 -38 -12 -13 16 -30 -76 -78#0 -78#1 -79 -80 47 66"/>
    </vehicle>
    <vType id="FBF-RH14_1294" length="5.00" maxSpeed="33.00" vClass="passenger" emissionClass="HBEFA3/PC_G_EU4">
        <param key="customCO2" value="221.79118416666665"/>
    </vType>
    <vehicle id="72" type="FBF-RH14_1294" depart="72.00">
        <route edges="-68 -69 -24 -31 -32"/>
    </vehicle>
    <vType id="KJEG38_1180" length="5.00" maxSpeed="33.00" vClass="passenger" emissionClass="HBEFA3/PC_G_EU4">
        <param key="customCO2" value="211.33333333333334"/>
    </vType>
    <vehicle id="73" type="KJEG38_1180" depart="73.00">
        <route edges="-81 -60 52 51 50#1 50#0 49 80 79 78#1 78#0 77 24 4"/>
    </vehicle>
    <vType id="HKB165_1184" length="5.00" maxSpeed="33.00" vClass="passenger" emissionClass="HBEFA3/PC_G_EU4">
        <param key="customCO2" value="194.0"/>
    </vType>
    <vehicle id="74" type="HKB165_1184" depart="74.00">
        <route edges="-31 -58 -69 -24 -76 -78#0 -78#1 -79 -80 -48 -50#0"/>
    </vehicle>
    <vType id="veh_2B27706_1085" length="5.00" maxSpeed="33.00" vClass="passenger" emissionClass="HBEFA3/PC_G_EU4">
        <param key="customCO2" value="214.22533333333334"/>
    </vType>
    <vehicle id="75" type="veh_2B27706_1085" depart="75.00">
        <route edges="80 79 78#1 78#0 77 24 23"/>
    </vehicle>
    <vType id="TTAWD020_733" length="5.00" maxSpeed="33.00" vClass="passenger" emissionClass="HBEFA3/PC_G_EU4">
        <param key="customCO2" value="308.7575"/>
    </vType>
    <vehicle id="76" type="TTAWD020_733" depart="76.00">
        <route edges="-69 -24 30 -10 -11 15 -28 18 -42 -43 -8"/>
    </vehicle>
    <vehicle id="77" type="KHE480_1136" depart="77.00">
        <route edges="-21 -22 -23 -24 30 -10 -11 -36 -38"/>
    </vehicle>
    <vType id="C996403_160" length="5.00" maxSpeed="33.00" vClass="passenger" emissionClass="HBEFA3/PC_G_EU4">
        <param key="customCO2" value="355.81"/>
    </vType>
    <vehicle id="78" type="C996403_160" depart="78.00">
        <route edges="-52 -81 -60 52 51 50#1 50#0 49 80 79 78#1 78#0 77 30 -10 -11 15 -28 18 17"/>
    </vehicle>
    <vType id="FPB063_1108" length="5.00" maxSpeed="33.00" vClass="passenger" emissionClass="HBEFA3/PC_G_EU4">
        <param key="customCO2" value="207.64289387083332"/>
    </vType>
    <vehicle id="79" type="FPB063_1108" depart="79.00">
        <route edges="-38 -12 -13 -14 -10 -11 -36"/>
    </vehicle>
    <vType id="HKE589_1183" length="5.00" maxSpeed="33.00" vClass="passenger" emissionClass="HBEFA3/PC_G_EU4">
        <param key="customCO2" value="207.125"/>
    </vType>
    <vehicle id="80" type="HKE589_1183" depart="80.00">
        <route edges="-17 -18 28 -25 -61 -44 21"/>
    </vehicle>
    <vType id="SRE410_1125" length="5.00" maxSpeed="33.00" vClass="passenger" emissionClass="HBEFA3/PC_G_EU4">
        <param key="customCO2" value="404.0769230769231"/>
    </vType>
    <vehicle id="81" type="SRE410_1125" depart="81.00">
        <route edges="-38 -12 -13 16 -30 24 69"/>
    </vehicle>
    <vType id="veh_11-GU1A_1334" length="5.00" maxSpeed="33.00" vClass="passenger" emissionClass="HBEFA3/PC_G_EU4">
        <param key="customCO2" value="349.309701325"/>
    </vType>
    <vehicle id="82" type="veh_11-GU1A_1334" depart="82.00">
        <route edges="62 3 2 1 0 -73 -17"/>
    </vehicle>
    <vType id="PS4R6AU09A1_799" length="5.00" maxSpeed="33.00" vClass="passenger" emissionClass="HBEFA3/PC_G_EU4">
        <param key="customCO2" value="249.67510179166666"/>
    </vType>
    <vehicle id="83" type="PS4R6AU09A1_799" depart="83.00">
        <route edges="-4 23 22 21 20 19 28"/>
    </vehicle>
    <vType id="KPB087_1173" length="5.00" maxSpeed="33.00" vClass="passenger" emissionClass="HBEFA3/PC_G_EU4">
        <param key="customCO2" value="194.89688405"/>
    </vType>
    <vehicle id="84" type="KPB087_1173" depart="84.00">
        <route edges="-32 -68 -69 4 -44 -22 -23"/>
    </vehicle>
    <vType id="BH2T0GU33A2_632" length="5.00" maxSpeed="33.00" vClass="passenger" emissionClass="HBEFA3/PC_G_EU4">
        <param key="customCO2" value="422.56695818"/>
    </vType>
    <vehicle id="85" type="BH2T0GU33A2_632" depart="85.00">
        <route edges="75 -59 -43 -8 34 -36 -38 -12 -13 16"/>
    </vehicle>
    <vType id="DG172869_512" length="5.00" maxSpeed="33.00" vClass="passenger" emissionClass="HBEFA3/PC_G_EU4">
        <param key="customCO2" value="335.1666666666667"/>
    </vType>
    <vehicle id="86" type="DG172869_512" depart="86.00">
        <route edges="-75 -7 -8 34 -36 -38 -12 -13 16 -30 -76 -78#0 -78#1 -79 -80 47"/>
    </vehicle>
    <vType id="DD85512_166" length="5.00" maxSpeed="33.00" vClass="passenger" emissionClass="HBEFA3/PC_G_EU4">
        <param key="customCO2" value="300.0228571428571"/>
    </vType>
    <vehicle id="87" type="DD85512_166" depart="87.00">
        <route edges="50#1 50#0 49 80 79 78#1 78#0 77 30 -10 -11 -36 -38 -12 -13 16 -30"/>
    </vehicle>
    <vType id="A745000_103" length="5.00" maxSpeed="33.00" vClass="passenger" emissionClass="HBEFA3/PC_G_EU4">
        <param key="customCO2" value="307.8975"/>
    </vType>
    <vehicle id="88" type="A745000_103" depart="88.00">
        <route edges="-2 -3 61 -13 16 -30 -31 -58 -69"/>
    </vehicle>
    <vehicle id="89" type="veh_256W3303_1269" depart="89.00">
        <route edges="-68 -69 -24 30 -10 -11 15 -28 18 17 -74"/>
    </vehicle>
    <vType id="EC1A1A_561" length="5.00" maxSpeed="33.00" vClass="passenger" emissionClass="HBEFA3/PC_G_EU4">
        <param key="customCO2" value="214.14491936875"/>
    </vType>
    <vehicle id="90" type="EC1A1A_561" depart="90.00">
        <route edges="4 3 2 29"/>
    </vehicle>
    <vType id="veh_62XEKUA007_241" length="5.00" maxSpeed="33.00" vClass="passenger" emissionClass="HBEFA3/PC_G_EU4">
        <param key="customCO2" value="412.28295238095245"/>
    </vType>
    <vehicle id="91" type="veh_62XEKUA007_241" depart="91.00">
        <route edges="8 7 6 -66 -47 80 79 78#1 78#0 77 30 -10 -11 15 -28 -29 -2"/>
    </vehicle>
    <vType id="W240E60TC-Z6040_1040" length="5.00" maxSpeed="33.00" vClass="passenger" emissionClass="HBEFA3/PC_G_EU4">
        <param key="customCO2" value="567.5649999999999"/>
    </vType>
    <vehicle id="92" type="W240E60TC-Z6040_1040" depart="92.00">
        <route edges="-66 -47 -48 -50#0 -50#1 -51 -52"/>
    </vehicle>
    <vType id="KHEH11_1133" length="5.00" maxSpeed="33.00" vClass="passenger" emissionClass="HBEFA3/PC_G_EU4">
        <param key="customCO2" value="230.5"/>
    </vType>
    <vehicle id="93" type="KHEH11_1133" depart="93.00">
        <route edges="65 -0 -1 29 -19 2 1 -41"/>
    </vehicle>
    <vType id="EL510048_438" length="5.00" maxSpeed="33.00" vClass="passenger" emissionClass="HBEFA3/PC_G_EU4">
        <param key="customCO2" value="162.15452654999999"/>
    </vType>
    <vehicle id="94" type="EL510048_438" depart="94.00">
        <route edges="-30 24 4 3 2 1 0 -73"/>