<routes xmlns:xsi="http://www.w3.org/2001/XMLSchema-instance" xsi:noNamespaceSchemaLocation="http://sumo.dlr.de/xsd/routes_file.xsd">
    <trip id="0" depart="0.00" from="22" to="-10" type="LKFTT220_872" />
    <trip id="1" depart="1.00" from="-44" to="-36" type="veh_251GGV4700_341" />
    <trip id="2" depart="2.00" from="4" to="29" type="KPE537_1174" />
    <trip id="3" depart="3.00" from="68" to="-19" type="C218E46DETC-Z5030_974" />
    <trip id="4" depart="4.00" from="-68" to="-11" type="PS4R6AU09A1_799" />
    <trip id="5" depart="5.00" from="-36" to="-79" type="FBF-RH14_1294" />
    <trip id="6" depart="6.00" from="-10" to="-31" type="CDH1-0.0-L-346_485" />
    <trip id="7" depart="7.00" from="23" to="0" type="HSB051_696" />
    <trip id="8" depart="8.00" from="-36" to="18" type="EM103803_483" />
    <trip id="9" depart="9.00" from="50#1" to="-0" type="veh_12-AV1H_1328" />
    <trip id="10" depart="10.00" from="50#1" to="30" type="X156E20DETC-Z5021-2_1018" />
    <trip id="11" depart="11.00" from="-52" to="-25" type="MD1N8GF29A1_623" />
    <trip id="12" depart="12.00" from="78#0" to="-52" type="ECFEGT3RS4.0-10_1220" />
    <trip id="13" depart="13.00" from="-19" to="-2" type="veh_201210_1415" />
    <trip id="14" depart="14.00" from="61" to="19" type="veh_15-AZ3H_848" />
    <trip id="15" depart="15.00" from="50#1" to="4" type="EE1J3C_563" />
    <trip id="16" depart="16.00" from="-81" to="79" type="HSB053_657" />
    <trip id="17" depart="17.00" from="-61" to="1" type="CL100196_488" />
    <trip id="18" depart="18.00" from="52" to="20" type="veh_16X5HV553A_277" />
    <trip id="19" depart="19.00" from="65" to="16" type="ECBJ1C_594" />
    <trip id="20" depart="20.00" from="31" to="-12" type="F600612_97" />
    <trip id="21" depart="21.00" from="-38" to="-47" type="X156E20DETC-Z5021-2_1018" />
    <trip id="22" depart="22.00" from="-18" to="-38" type="D680672_140" />
    <trip id="23" depart="23.00" from="-2" to="-44" type="DBF-DH39_1311" />
    <trip id="24" depart="24.00" from="22" to="-60" type="GAPA-TAQ_34" />
    <trip id="25" depart="25.00" from="-60" to="-32" type="F708503_177" />
    <trip id="26" depart="26.00" from="-43" to="75" type="veh_12-AV1H_1329" />
    <trip id="27" depart="27.00" from="23" to="2" type="APA00017_506" />
    <trip id="28" depart="28.00" from="-29" to="4" type="veh_145HV412DC_346" />
    <trip id="29" depart="29.00" from="-28" to="-61" type="C117E20DETC-Z5021-3_970" />
    <trip id="30" depart="30.00" from="8" to="22" type="A451E10-Z8010_1071" />
    <trip id="31" depart="31.00" from="1" to="3" type="veh_1412P03137_316" />
    <trip id="32" depart="32.00" from="61" to="47" type="AWE503_1168" />
    <trip id="33" depart="33.00" from="-38" to="-11" type="K478507_100" />
    <trip id="34" depart="34.00" from="-50#0" to="-43" type="EM100006_482" />
    <trip id="35" depart="35.00" from="-32" to="75" type="CL100196_488" />
    <trip id="36" depart="36.00" from="66" to="-50#0" type="EM100006_482" />
    <trip id="37" depart="37.00" from="24" to="-65" type="K3DS10300_1253" />
    <trip id="38" depart="38.00" from="7" to="-74" type="EGAA1C_557" />
    <trip id="39" depart="39.00" from="-43" to="-41" type="veh_201604_1439" />
    <trip id="40" depart="40.00" from="15" to="-43" type="veh_07-GL1A_1360" />
    <trip id="41" depart="41.00" from="17" to="69" type="DME679_682" />
    <trip id="42" depart="42.00" from="-65" to="-36" type="veh_201608_1414" />
    <trip id="43" depart="43.00" from="80" to="-79" type="BP33-3.5-H-122_484" />
    <trip id="44" depart="44.00" from="-19" to="-13" type="veh_256W3303_1269" />
    <trip id="45" depart="45.00" from="-20" to="21" type="YD5N0AU25A2_775" />
    <trip id="46" depart="46.00" from="49" to="-68" type="EGAA1C_559" />
    <trip id="47" depart="47.00" from="-14" to="-61" type="T740204_1091" />
    <trip id="48" depart="48.00" from="80" to="-80" type="E6NA1A_566" />
    <trip id="49" depart="49.00" from="78#1" to="65" type="FX99511_85" />
    <trip id="50" depart="50.00" from="-1" to="34" type="AM71-2.5-C-947_918" />
    <trip id="51" depart="51.00" from="29" to="-81" type="veh_08-ZP1M_1354" />
    <trip id="52" depart="52.00" from="-43" to="22" type="F145016_164" />
    <trip id="53" depart="53.00" from="-20" to="-69" type="K290728_92" />
    <trip id="54" depart="54.00" from="-73" to="78#0" type="DMB133_714" />
    <trip id="55" depart="55.00" from="66" to="-43" type="WH94501_1087" />
    <trip id="56" depart="56.00" from="-78#1" to="-3" type="BTB096_1162" />
    <trip id="57" depart="57.00" from="7" to="66" type="E3UJ-BY62_72" />
    <trip id="58" depart="58.00" from="-48" to="22" type="veh_15-AZ3A_846" />
    <trip id="59" depart="59.00" from="2" to="-25" type="veh_201210_1415" />
    <trip id="60" depart="60.00" from="43" to="-81" type="C117E20DETC-Z5021-3_970" />
    <trip id="61" depart="61.00" from="47" to="-80" type="K5LXC6554_934" />
    <trip id="62" depart="62.00" from="-0" to="-50#1" type="veh_12-ZW3H_1343" />
    <trip id="63" depart="63.00" from="-10" to="74" type="HRE758_716" />
    <trip id="64" depart="64.00" from="67" to="52" type="veh_2418Z46934_284" />
    <trip id="65" depart="65.00" from="-5" to="-14" type="FBF-RH19_1312" />
    <trip id="66" depart="66.00" from="66" to="77" type="UB3R6AU01A5_789" />
    <trip id="67" depart="67.00" from="-19" to="-78#0" type="DL500090_437" />
    <trip id="68" depart="68.00" from="-17" to="43" type="EB11-CA72_926" />
    <trip id="69" depart="69.00" from="43" to="-22" type="veh_251GGV4700_341" />
    <trip id="70" depart="70.00" from="-75" to="0" type="L5FBB0722_433" />
    <trip id="71" depart="71.00" from="-43" to="66" type="T739201_1078" />
    <trip id="72" depart="72.00" from="-68" to="-32" type="A207E30DETC-Z5011-1_994" />
    <trip id="73" depart="73.00" from="-81" to="4" type="W205E20DETC-Z6029_959" />
    <trip id="74" depart="74.00" from="-31" to="-50#0" type="veh_201604_1439" />
    <trip id="75" depart="75.00" from="80" to="23" type="C451E10-Z2027_1073" />
    <trip id="76" depart="76.00" from="-69" to="-8" type="ECBJ1C_594" />
    <trip id="77" depart="77.00" from="-21" to="-38" type="LKDTT066_871" />
    <trip id="78" depart="78.00" from="-52" to="17" type="AWE318_1172" />
    <trip id="79" depart="79.00" from="-38" to="-36" type="A696623_95" />
    <trip id="80" depart="80.00" from="-17" to="21" type="VL64015_185" />
    <trip id="81" depart="81.00" from="-38" to="69" type="CL100061_486" />
    <trip id="82" depart="82.00" from="62" to="-17" type="ECBJ1C_595" />
    <trip id="83" depart="83.00" from="-4" to="28" type="ECN03A_603" />
    <trip id="84" depart="84.00" from="-32" to="-23" type="veh_6ECPEG1-024_904" />
    <trip id="85" depart="85.00" from="75" to="16" type="veh_3066K77727_250" />
    <trip id="86" depart="86.00" from="-75" to="47" type="F600612_117" />
    <trip id="87" depart="87.00" from="50#1" to="-30" type="veh_3ETTP008_874" />
    <trip id="88" depart="88.00" from="-2" to="-69" type="EGBB1M_558" />
    <trip id="89" depart="89.00" from="-68" to="-74" type="VG4L3AU21A2_802" />
    <trip id="90" depart="90.00" from="4" to="29" type="veh_8AU1-2.0-F-966_405" />
    <trip id="91" depart="91.00" from="8" to="-2" type="AU373-6-0813_16_18" />
    <trip id="92" depart="92.00" from="-66" to="-52" type="BKA00059_471" />
    <trip id="93" depart="93.00" from="65" to="-41" type="HTF3FUP109A_782" />
    <trip id="94" depart="94.00" from="-30" to="-73" type="KBE-LV74_1304" />
    <trip id="95" depart="95.00" from="-68" to="-44" type="C117E20DETC-Z5021-3_970" />
    <trip id="96" depart="96.00" from="-41" to="73" type="DPC240_683" />
    <trip id="97" depart="97.00" from="-7" to="65" type="HSB052_697" />
    <trip id="98" depart="98.00" from="0" to="-13" type="E9KG1A_7" />
    <trip id="99" depart="99.00" from="80" to="6" type="GD3N8GU87B1_626" />
    <trip id="100" depart="100.00" from="78#1" to="74" type="DFDF1D_11" />
    <trip id="101" depart="101.00" from="61" to="-28" type="KPB089_1171" />
    <trip id="102" depart="102.00" from="-76" to="-32" type="KJEG37_1177" />
    <trip id="103" depart="103.00" from="-65" to="-14" type="EM100153_491" />
    <trip id="104" depart="104.00" from="-61" to="8" type="VX62501_171" />
    <trip id="105" depart="105.00" from="-43" to="47" type="L5FBB0722_433" />
    <trip id="106" depart="106.00" from="-73" to="-68" type="L5KLT0921_751" />
    <trip id="107" depart="107.00" from="78#0" to="80" type="EAZA1A_578" />
    <trip id="108" depart="108.00" from="1" to="33" type="veh_14-ZE1C_1326" />
    <trip id="109" depart="109.00" from="-25" to="-48" type="veh_53XEGP9036_331" />
    <trip id="110" depart="110.00" from="78#1" to="16" type="C451E10-Z2027_1073" />
    <trip id="111" depart="111.00" from="0" to="42" type="FKB337_1106" />
    <trip id="112" depart="112.00" from="-14" to="17" type="GMB013_1154" />
    <trip id="113" depart="113.00" from="-78#1" to="62" type="BGA00050_447" />
    <trip id="114" depart="114.00" from="-25" to="78#0" type="A451E10-Z8010-1_1072" />
    <trip id="115" depart="115.00" from="-18" to="-3" type="veh_07-AV4H_1324" />
    <trip id="116" depart="116.00" from="18" to="29" type="FPB063_1108" />
    <trip id="117" depart="117.00" from="-4" to="-21" type="AR600011_863" />
    <trip id="118" depart="118.00" from="68" to="-41" type="JF6F4AU07AC_785" />
    <trip id="119" depart="119.00" from="18" to="20" type="EB701A_546" />
    <trip id="120" depart="120.00" from="-67" to="17" type="YD5N0AU21A2_774" />
    <trip id="121" depart="121.00" from="-8" to="75" type="A696623_95" />
    <trip id="122" depart="122.00" from="-31" to="33" type="AM71-2.5-C-947_918" />
    <trip id="123" depart="123.00" from="-4" to="-65" type="FE-92AII-16_1231" />
    <trip id="124" depart="124.00" from="28" to="-5" type="BTE698_1160" />
    <trip id="125" depart="125.00" from="-50#0" to="42" type="MA1TZ4BJL92A14029_935" />
    <trip id="126" depart="126.00" from="-17" to="-74" type="veh_151GRN4058_354" />
    <trip id="127" depart="127.00" from="80" to="80" type="EDTW1C_579" />
    <trip id="128" depart="128.00" from="-17" to="-32" type="C117E20DETC-Z5021-3_970" />
    <trip id="129" depart="129.00" from="-43" to="74" type="X156E20DETC-Z5021_1019" />
    <trip id="130" depart="130.00" from="67" to="67" type="D3UB-CAQ_27" />
    <trip id="131" depart="131.00" from="-60" to="-25" type="EM103803_483" />
    <trip id="132" depart="132.00" from="6" to="31" type="JF6F4AU05AC_786" />
    <trip id="133" depart="133.00" from="2" to="8" type="EBV02A_600" />
    <trip id="134" depart="134.00" from="23" to="-0" type="CNB067_1139" />
    <trip id="135" depart="135.00" from="51" to="-5" type="AF61-6.2-J-926_473" />
    <trip id="136" depart="136.00" from="24" to="75" type="veh_3A81005_1086" />
    <trip id="137" depart="137.00" from="-23" to="-21" type="B996002_127" />
    <trip id="138" depart="138.00" from="-20" to="1" type="FE-991SKit-MT-13_1215" />
    <trip id="139" depart="139.00" from="-44" to="19" type="VW97809_81" />
    <trip id="140" depart="140.00" from="33" to="-31" type="veh_2488LN8043_1285" />
    <trip id="141" depart="141.00" from="21" to="-43" type="HSB053_657" />
    <trip id="142" depart="142.00" from="-78#0" to="69" type="EE9S1A_8" />
    <trip id="143" depart="143.00" from="61" to="-19" type="T379400_1074" />
    <trip id="144" depart="144.00" from="-68" to="-44" type="PPE437_1117" />
    <trip id="145" depart="145.00" from="-0" to="46" type="EC5A1A_574" />
    <trip id="146" depart="146.00" from="22" to="-43" type="W212DE22TC-Z4010_978" />
    <trip id="147" depart="147.00" from="41" to="1" type="T739201_1078" />
    <trip id="148" depart="148.00" from="-68" to="-1" type="JJB066_1141" />
    <trip id="149" depart="149.00" from="-18" to="67" type="VX62501_171" />
    <trip id="150" depart="150.00" from="69" to="0" type="VW97809_81" />
    <trip id="151" depart="151.00" from="6" to="17" type="veh_1412P03137_316" />
    <trip id="152" depart="152.00" from="-24" to="-22" type="T384700_1076" />
    <trip id="153" depart="153.00" from="-5" to="69" type="EBP31A_587" />
    <trip id="154" depart="154.00" from="50#0" to="65" type="EB16-CB7A_925" />
    <trip id="155" depart="155.00" from="69" to="-32" type="veh_28SPGE1197_530" />
    <trip id="156" depart="156.00" from="-41" to="-2" type="VW351_780169_09_1382" />
    <trip id="157" depart="157.00" from="47" to="67" type="CP305_67" />
    <trip id="158" depart="158.00" from="-66" to="20" type="ABQ298_713" />
    <trip id="159" depart="159.00" from="-25" to="74" type="FKB337_1106" />
    <trip id="160" depart="160.00" from="65" to="79" type="TD1F0GU04A1_771" />
    <trip id="161" depart="161.00" from="50#1" to="67" type="FS6R6AU01AC_646" />
    <trip id="162" depart="162.00" from="-10" to="4" type="T891600_1092" />
    <trip id="163" depart="163.00" from="-51" to="74" type="EB401A_554" />
    <trip id="164" depart="164.00" from="50#0" to="65" type="veh_12-SK3A_1368" />
    <trip id="165" depart="165.00" from="50#1" to="-43" type="YD5N0AU21A2_774" />
    <trip id="166" depart="166.00" from="49" to="-20" type="HSB053_692" />
    <trip id="167" depart="167.00" from="66" to="62" type="D416003_116" />
    <trip id="168" depart="168.00" from="-36" to="51" type="DR100015_497" />
    <trip id="169" depart="169.00" from="-74" to="-5" type="veh_0EFLFX21-001_942" />
    <trip id="170" depart="170.00" from="50#0" to="-38" type="CBF-GJ15_1299" />
    <trip id="171" depart="171.00" from="-10" to="-30" type="DC91-2.0-J-268_500" />
    <trip id="172" depart="172.00" from="-51" to="65" type="FBF-RH15_1297" />
    <trip id="173" depart="173.00" from="78#1" to="-44" type="veh_2B30701_1093" />
    <trip id="174" depart="174.00" from="22" to="-65" type="veh_0H38220_206" />
    <trip id="175" depart="175.00" from="79" to="-81" type="veh_14-GE5A_832" />
    <trip id="176" depart="176.00" from="75" to="-21" type="veh_12-ZW3H_1343" />
    <trip id="177" depart="177.00" from="78#1" to="-3" type="DC91-2.0-J-268_500" />
    <trip id="178" depart="178.00" from="78#0" to="-43" type="MC0D6U04A1_618" />
    <trip id="179" depart="179.00" from="-20" to="-69" type="veh_16X5HV553A_289" />
    <trip id="180" depart="180.00" from="34" to="-50#0" type="C453E09TC-Z6024_1070" />
    <trip id="181" depart="181.00" from="19" to="-79" type="veh_12-AV1A_1323" />
    <trip id="182" depart="182.00" from="-62" to="16" type="veh_3A81005_1086" />
    <trip id="183" depart="183.00" from="-42" to="31" type="veh_16X5HV553A_289" />
    <trip id="184" depart="184.00" from="-0" to="74" type="C751520_165" />
    <trip id="185" depart="185.00" from="-81" to="33" type="EB10-A455_923" />
    <trip id="186" depart="186.00" from="41" to="28" type="JK2N8GF01A1_625" />
    <trip id="187" depart="187.00" from="-59" to="-17" type="PLF5NAUP11A_641" />
    <trip id="188" depart="188.00" from="28" to="-51" type="A451E10-Z8010_1071" />
    <trip id="189" depart="189.00" from="-50#0" to="61" type="F099010_91" />
    <trip id="190" depart="190.00" from="34" to="-5" type="KJEG37_1177" />
    <trip id="191" depart="191.00" from="-50#0" to="-66" type="W164DE30TC-Z9018_1046" />
    <trip id="192" depart="192.00" from="-66" to="-48" type="EFR71M_589" />
    <trip id="193" depart="193.00" from="-22" to="-67" type="UB2R6AU11A1_788" />
    <trip id="194" depart="194.00" from="75" to="29" type="MC0D6U04A1_618" />
    <trip id="195" depart="195.00" from="69" to="2" type="veh_1412P03137_316" />
    <trip id="196" depart="196.00" from="-5" to="0" type="FBF-RH15_1297" />
    <trip id="197" depart="197.00" from="-0" to="-47" type="DBF-DH39_1311" />
    <trip id="198" depart="198.00" from="-68" to="17" type="UB3R6AU13A1_791" />
    <trip id="199" depart="199.00" from="24" to="-74" type="A207E30DETC-Z5011-1_994" />
    <trip id="200" depart="200.00" from="-7" to="-32" type="DBF-DL14_1302" />
    <trip id="201" depart="201.00" from="-75" to="69" type="EC1A1A_565" />
    <trip id="202" depart="202.00" from="50#0" to="-29" type="EKA00287_508" />
    <trip id="203" depart="203.00" from="-19" to="-8" type="X156E20DETC-Z5021_1019" />
    <trip id="204" depart="204.00" from="21" to="-51" type="BTLF-Q7A_40" />
    <trip id="205" depart="205.00" from="51" to="42" type="veh_145HV412DC_346" />
    <trip id="206" depart="206.00" from="28" to="-38" type="EGAA1C_557" />
    <trip id="207" depart="207.00" from="-31" to="-10" type="FE-970IIS-14_1245" />
    <trip id="208" depart="208.00" from="-41" to="-75" type="GMB013_1155" />
    <trip id="209" depart="209.00" from="61" to="-17" type="veh_306ANP5010_1275" />
    <trip id="210" depart="210.00" from="-67" to="21" type="VW324_30109_1375" />
    <trip id="211" depart="211.00" from="-30" to="30" type="KJEG37_1177" />
    <trip id="212" depart="212.00" from="-78#0" to="-41" type="veh_2B30701_1093" />
    <trip id="213" depart="213.00" from="24" to="-0" type="FBF-RH15_1296" />
    <trip id="214" depart="214.00" from="42" to="46" type="AWE502_1166" />
    <trip id="215" depart="215.00" from="-20" to="-68" type="AM71-2.5-C-947_918" />
    <trip id="216" depart="216.00" from="-29" to="78#0" type="CM0A6626_637" />
    <trip id="217" depart="217.00" from="-8" to="-13" type="veh_8AU1-2.0-F-966_405" />
    <trip id="218" depart="218.00" from="-41" to="61" type="CBE-DK14_1295" />
    <trip id="219" depart="219.00" from="-73" to="50#0" type="GNU4-CAQ_28" />
    <trip id="220" depart="220.00" from="28" to="8" type="HTF3FUP110A_783" />
    <trip id="221" depart="221.00" from="18" to="77" type="VF24005_80" />
    <trip id="222" depart="222.00" from="68" to="2" type="TD1F0GU13A1_773" />
    <trip id="223" depart="223.00" from="33" to="-79" type="MLE435_676" />
    <trip id="224" depart="224.00" from="52" to="0" type="veh_16-GL1H_854" />
    <trip id="225" depart="225.00" from="69" to="41" type="FS6R6AU01AC_646" />
    <trip id="226" depart="226.00" from="-75" to="-42" type="UX72901_1265" />
    <trip id="227" depart="227.00" from="-41" to="22" type="FNLE-LBQ_812" />
    <trip id="228" depart="228.00" from="43" to="-8" type="TF96000_1089" />
    <trip id="229" depart="229.00" from="21" to="-44" type="veh_0ECL3T31-012_915" />
    <trip id="230" depart="230.00" from="-18" to="-47" type="FBF-RH19_1312" />
    <trip id="231" depart="231.00" from="-44" to="-50#1" type="W240E60TC-Z0040_1039" />
    <trip id="232" depart="232.00" from="-81" to="-23" type="KHE480_1136" />
    <trip id="233" depart="233.00" from="-38" to="30" type="FBE-VC16_1305" />
    <trip id="234" depart="234.00" from="31" to="-14" type="HSB053_692" />
    <trip id="235" depart="235.00" from="-66" to="0" type="VW416_8-0217_09_53" />
    <trip id="236" depart="236.00" from="-67" to="-32" type="DPC240_683" />
    <trip id="237" depart="237.00" from="-67" to="69" type="veh_60XEGCA050_328" />
    <trip id="238" depart="238.00" from="17" to="30" type="VW97809_81" />
    <trip id="239" depart="239.00" from="62" to="43" type="F099010_90" />
    <trip id="240" depart="240.00" from="-61" to="-0" type="DR100015_497" />
    <trip id="241" depart="241.00" from="-58" to="42" type="JK4N0AU05A2_648" />
    <trip id="242" depart="242.00" from="62" to="78#0" type="ECBJ1C_595" />
    <trip id="243" depart="243.00" from="-67" to="41" type="KBS6TT34_744" />
    <trip id="244" depart="244.00" from="0" to="19" type="WH94501_1087" />
    <trip id="245" depart="245.00" from="-36" to="-36" type="ECFE-981GTS-MT-15_1239" />
    <trip id="246" depart="246.00" from="-69" to="-11" type="EHC3-2.5-L-611_515" />
    <trip id="247" depart="247.00" from="-51" to="29" type="FE991-MT-12_1205" />
    <trip id="248" depart="248.00" from="-66" to="-28" type="EGBB1C_560" />
    <trip id="249" depart="249.00" from="-75" to="-22" type="D001500_128" />
    <trip id="250" depart="250.00" from="20" to="-10" type="FBF-RH19_1312" />
    <trip id="251" depart="251.00" from="-65" to="15" type="veh_60XEGCA050_326" />
    <trip id="252" depart="252.00" from="-10" to="22" type="L5LAD9771_376" />
    <trip id="253" depart="253.00" from="-23" to="-74" type="veh_36Z9L19796_1286" />
    <trip id="254" depart="254.00" from="-13" to="-61" type="TF96000_1097" />
    <trip id="255" depart="255.00" from="-32" to="-50#1" type="W212DE22TC-Z4010-1_979" />
    <trip id="256" depart="256.00" from="43" to="-61" type="veh_201213_1416" />
    <trip id="257" depart="257.00" from="42" to="6" type="veh_2ECPES2-018_941" />
    <trip id="258" depart="258.00" from="-41" to="-18" type="veh_60XEGCA050_325" />
    <trip id="259" depart="259.00" from="-10" to="-81" type="GD5N0U01AC_629" />
    <trip id="260" depart="260.00" from="80" to="-58" type="FBF-VC14_1301" />
    <trip id="261" depart="261.00" from="23" to="47" type="veh_16-AA2H_1350" />
    <trip id="262" depart="262.00" from="23" to="42" type="DPC240_683" />
    <trip id="263" depart="263.00" from="77" to="-31" type="WH97510_1095" />
    <trip id="264" depart="264.00" from="-10" to="-25" type="FPE638_1116" />
    <trip id="265" depart="265.00" from="-22" to="28" type="KHEH10_1135" />
    <trip id="266" depart="266.00" from="15" to="-36" type="T739201_1079" />
    <trip id="267" depart="267.00" from="30" to="46" type="JF6F0TU03AC_784" />
    <trip id="268" depart="268.00" from="-28" to="19" type="DFUB-BAQ_23" />
    <trip id="269" depart="269.00" from="42" to="-21" type="T384700_1076" />
    <trip id="270" depart="270.00" from="51" to="78#1" type="veh_9B51-5.4-C-796_859" />
    <trip id="271" depart="271.00" from="-20" to="-10" type="veh_10EDV-1_1317" />
    <trip id="272" depart="272.00" from="-50#0" to="29" type="JLB049_1142" />
    <trip id="273" depart="273.00" from="78#0" to="-65" type="KJEG37_1177" />
    <trip id="274" depart="274.00" from="33" to="-18" type="EABJ1C_596" />
    <trip id="275" depart="275.00" from="3" to="21" type="veh_6ECP5V31-007_908" />
    <trip id="276" depart="276.00" from="-2" to="46" type="FBF-RH15_1297" />
    <trip id="277" depart="277.00" from="61" to="19" type="EG1M1M_591" />
    <trip id="278" depart="278.00" from="-21" to="8" type="F099010_90" />
    <trip id="279" depart="279.00" from="47" to="-58" type="TD1F0GU09A1_772" />
    <trip id="280" depart="280.00" from="-68" to="-60" type="EFR71M_589" />
    <trip id="281" depart="281.00" from="-79" to="-52" type="EAP61A_15" />
    <trip id="282" depart="282.00" from="61" to="51" type="KPB089_1171" />
    <trip id="283" depart="283.00" from="-20" to="78#0" type="F099010_91" />
    <trip id="284" depart="284.00" from="22" to="52" type="K9LCD6371_372" />
    <trip id="285" depart="285.00" from="31" to="-69" type="X156E20DETC-Z5021-2_1018" />
    <trip id="286" depart="286.00" from="4" to="78#1" type="veh_12-AV1A_1323" />
    <trip id="287" depart="287.00" from="-43" to="50#1" type="EGAA1C_559" />
    <trip id="288" depart="288.00" from="-81" to="-76" type="AWE504_1169" />
    <trip id="289" depart="289.00" from="-69" to="4" type="veh_3A81005_1086" />
    <trip id="290" depart="290.00" from="-43" to="62" type="veh_2860N92510_245" />
    <trip id="291" depart="291.00" from="52" to="-19" type="veh_4ECPY31-009_911" />
    <trip id="292" depart="292.00" from="67" to="-41" type="EB16-RB3B_930" />
    <trip id="293" depart="293.00" from="-74" to="2" type="K1LDD1889_360" />
    <trip id="294" depart="294.00" from="-61" to="-11" type="veh_36Z9L19796_1286" />
    <trip id="295" depart="295.00" from="62" to="-3" type="L5ND14804_379" />
    <trip id="296" depart="296.00" from="-32" to="50#0" type="veh_2ECPES2-018_941" />
    <trip id="297" depart="297.00" from="-52" to="67" type="veh_2B30701_1093" />
    <trip id="298" depart="298.00" from="31" to="-44" type="TF96000_1088" />
    <trip id="299" depart="299.00" from="-1" to="77" type="T379400_1074" />
</routes>