<?xml version="1.0" encoding="UTF-8"?>

<!-- generated on 2025-10-28 22:07:08 by Eclipse SUMO duarouter Version 1.24.0
<duarouterConfiguration xmlns:xsi="http://www.w3.org/2001/XMLSchema-instance" xsi:noNamespaceSchemaLocation="http://sumo.dlr.de/xsd/duarouterConfiguration.xsd">

    <input>
        <net-file value="Town03.net.xml"/>
        <additional-files value="vtypes.xml"/>
        <route-files value="custom.trips.xml"/>
    </input>

    <output>
        <output-file value="custom.rou.xml"/>
    </output>

</duarouterConfiguration>
-->

<routes xmlns:xsi="http://www.w3.org/2001/XMLSchema-instance" xsi:noNamespaceSchemaLocation="http://sumo.dlr.de/xsd/routes_file.xsd">
    <vType id="LKFTT220_872" length="5.00" maxSpeed="33.00" vClass="passenger" emissionClass="HBEFA3/PC_G_EU4">
        <param key="customCO2" value="353.115"/>
    </vType>
    <vehicle id="0" type="LKFTT220_872" depart="0.00">
        <route edges="22 21 62 61 -13 -14 -10"/>
    </vehicle>
    <vType id="veh_251GGV4700_341" length="5.00" maxSpeed="33.00" vClass="passenger" emissionClass="HBEFA3/PC_G_EU4">
        <param key="customCO2" value="240.45275"/>
    </vType>
    <vehicle id="1" type="veh_251GGV4700_341" depart="1.00">
        <route edges="-44 21 62 61 -13 -14 -10 -11 -36"/>
    </vehicle>
    <vType id="KPE537_1174" length="5.00" maxSpeed="33.00" vClass="passenger" emissionClass="HBEFA3/PC_G_EU4">
        <param key="customCO2" value="196.25"/>
    </vType>
    <vehicle id="2" type="KPE537_1174" depart="2.00">
        <route edges="4 3 2 29"/>
    </vehicle>
    <vType id="C218E46DETC-Z5030_974" length="5.00" maxSpeed="33.00" vClass="passenger" emissionClass="HBEFA3/PC_G_EU4">
        <param key="customCO2" value="386.83768806"/>
    </vType>
    <vehicle id="3" type="C218E46DETC-Z5030_974" depart="3.00">
        <route edges="68 67 66 65 -0 -1 29 -19"/>
    </vehicle>
    <vType id="PS4R6AU09A1_799" length="5.00" maxSpeed="33.00" vClass="passenger" emissionClass="HBEFA3/PC_G_EU4">
        <param key="customCO2" value="249.67510179166666"/>
    </vType>
    <vehicle id="4" type="PS4R6AU09A1_799" depart="4.00">
        <route edges="-68 -69 -24 30 -10 -11"/>
    </vehicle>
    <vType id="FBF-RH14_1294" length="5.00" maxSpeed="33.00" vClass="passenger" emissionClass="HBEFA3/PC_G_EU4">
        <param key="customCO2" value="221.79118416666665"/>
    </vType>
    <vehicle id="5" type="FBF-RH14_1294" depart="5.00">
        <route edges="-36 -38 -12 -13 16 -30 -76 -78#0 -78#1 -79"/>
    </vehicle>
    <vType id="CDH1-0.0-L-346_485" length="5.00" maxSpeed="33.00" vClass="passenger" emissionClass="HBEFA3/PC_G_EU4">
        <param key="customCO2" value="212.41598260869566"/>
    </vType>
    <vehicle id="6" type="CDH1-0.0-L-346_485" depart="6.00">
        <route edges="-10 -11 -36 -38 -12 -13 16 -30 -31"/>
    </vehicle>
    <vType id="HSB051_696" length="5.00" maxSpeed="33.00" vClass="passenger" emissionClass="HBEFA3/PC_G_EU4">
        <param key="customCO2" value="210.0"/>
    </vType>
    <vehicle id="7" type="HSB051_696" depart="7.00">
        <route edges="23 22 21 20 2 1 0"/>
    </vehicle>
    <vType id="EM103803_483" length="5.00" maxSpeed="33.00" vClass="passenger" emissionClass="HBEFA3/PC_G_EU4">
        <param key="customCO2" value="189.65333333333334"/>
    </vType>
    <vehicle id="8" type="EM103803_483" depart="8.00">
        <route edges="-36 -38 -12 -13 -14 -10 -11 15 -28 18"/>
    </vehicle>
    <vType id="veh_12-AV1H_1328" length="5.00" maxSpeed="33.00" vClass="passenger" emissionClass="HBEFA3/PC_G_EU4">
        <param key="customCO2" value="154.1775575"/>
    </vType>
    <vehicle id="9" type="veh_12-AV1H_1328" depart="9.00">
        <route edges="50#1 50#0 49 47 66 65 -0"/>
    </vehicle>
    <vType id="X156E20DETC-Z5021-2_1018" length="5.00" maxSpeed="33.00" vClass="passenger" emissionClass="HBEFA3/PC_G_EU4">
        <param key="customCO2" value="225.29"/>
    </vType>
    <vehicle id="10" type="X156E20DETC-Z5021-2_1018" depart="10.00">
        <route edges="50#1 50#0 49 80 79 78#1 78#0 77 30"/>
    </vehicle>
    <vType id="MD1N8GF29A1_623" length="5.00" maxSpeed="33.00" vClass="passenger" emissionClass="HBEFA3/PC_G_EU4">
        <param key="customCO2" value="203.47916666666666"/>
    </vType>
    <vehicle id="11" type="MD1N8GF29A1_623" depart="11.00">
        <route edges="-52 -81 -60 52 51 50#1 50#0 49 47 66 65 -0 -1 29 28 -25"/>
    </vehicle>
    <vType id="ECFEGT3RS4.0-10_1220" length="5.00" maxSpeed="33.00" vClass="passenger" emissionClass="HBEFA3/PC_G_EU4">
        <param key="customCO2" value="438.72999999999996"/>
    </vType>
    <vehicle id="12" type="ECFEGT3RS4.0-10_1220" depart="12.00">
        <route edges="78#0 77 30 -10 46 8 7 6 -66 -47 -48 -50#0 -50#1 -51 -52"/>
    </vehicle>
    <vType id="veh_201210_1415" length="5.00" maxSpeed="33.00" vClass="passenger" emissionClass="HBEFA3/PC_G_EU4">
        <param key="customCO2" value="308.37657922"/>
    </vType>
    <vehicle id="13" type="veh_201210_1415" depart="13.00">
        <route edges="-19 2 1 -41 -18 -29 -2"/>
    </vehicle>
    <vType id="veh_15-AZ3H_848" length="5.00" maxSpeed="33.00" vClass="passenger" emissionClass="HBEFA3/PC_G_EU4">
        <param key="customCO2" value="198.5628066125"/>
    </vType>
    <vehicle id="14" type="veh_15-AZ3H_848" depart="14.00">
        <route edges="61 -13 -14 -10 -11 15 -28 -29 -2 19"/>
    </vehicle>
    <vType id="EE1J3C_563" length="5.00" maxSpeed="33.00" vClass="passenger" emissionClass="HBEFA3/PC_G_EU4">
        <param key="customCO2" value="187.96273566363635"/>
    </vType>
    <vehicle id="15" type="EE1J3C_563" depart="15.00">
        <route edges="50#1 50#0 49 80 79 78#1 78#0 77 24 4"/>
    </vehicle>
    <vType id="HSB053_657" length="5.00" maxSpeed="33.00" vClass="passenger" emissionClass="HBEFA3/PC_G_EU4">
        <param key="customCO2" value="215.0"/>
    </vType>
    <vehicle id="16" type="HSB053_657" depart="16.00">
        <route edges="-81 -60 52 51 50#1 50#0 49 80 79"/>
    </vehicle>
    <vType id="CL100196_488" length="5.00" maxSpeed="33.00" vClass="passenger" emissionClass="HBEFA3/PC_G_EU4">
        <param key="customCO2" value="201.4055"/>
    </vType>
    <vehicle id="17" type="CL100196_488" depart="17.00">
        <route edges="-61 3 2 1"/>
    </vehicle>
    <vType id="veh_16X5HV553A_277" length="5.00" maxSpeed="33.00" vClass="passenger" emissionClass="HBEFA3/PC_G_EU4">
        <param key="customCO2" value="242.0145"/>
    </vType>
    <vehicle id="18" type="veh_16X5HV553A_277" depart="18.00">
        <route edges="52 51 50#1 50#0 49 80 79 78#1 78#0 77 24 23 22 21 20"/>
    </vehicle>
    <vType id="ECBJ1C_594" length="5.00" maxSpeed="33.00" vClass="passenger" emissionClass="HBEFA3/PC_G_EU4">
        <param key="customCO2" value="150.6325"/>
    </vType>
    <vehicle id="19" type="ECBJ1C_594" depart="19.00">
        <route edges="65 -0 -1 29 28 -25 -38 -12 -13 16"/>
    </vehicle>
    <vType id="F600612_97" length="5.00" maxSpeed="33.00" vClass="passenger" emissionClass="HBEFA3/PC_G_EU4">
        <param key="customCO2" value="256.00481535625"/>
    </vType>
    <vehicle id="20" type="F600612_97" depart="20.00">
        <route edges="31 30 -10 -11 -36 -38 -12"/>
    </vehicle>
    <vehicle id="21" type="X156E20DETC-Z5021-2_1018" depart="21.00">
        <route edges="-38 -12 -13 -14 -10 46 8 7 6 -66 -47"/>
    </vehicle>
    <vType id="D680672_140" length="5.00" maxSpeed="33.00" vClass="passenger" emissionClass="HBEFA3/PC_G_EU4">
        <param key="customCO2" value="351.28700000000003"/>
    </vType>
    <vehicle id="22" type="D680672_140" depart="22.00">
        <route edges="-18 28 -25 -38"/>
    </vehicle>
    <vType id="DBF-DH39_1311" length="5.00" maxSpeed="33.00" vClass="passenger" emissionClass="HBEFA3/PC_G_EU4">
        <param key="customCO2" value="246.1521250625"/>
    </vType>
    <vehicle id="23" type="DBF-DH39_1311" depart="23.00">
        <route edges="-2 -3 -44"/>
    </vehicle>
    <vType id="GAPA-TAQ_34" length="5.00" maxSpeed="33.00" vClass="passenger" emissionClass="HBEFA3/PC_G_EU4">
        <param key="customCO2" value="312.14939537272727"/>
    </vType>
    <vehicle id="24" type="GAPA-TAQ_34" depart="24.00">
        <route edges="22 21 62 -4 -24 -76 -78#0 -78#1 -79 -80 -48 -50#0 -50#1 -51 -52 -81 -60"/>
    </vehicle>
    <vType id="F708503_177" length="5.00" maxSpeed="33.00" vClass="passenger" emissionClass="HBEFA3/PC_G_EU4">
        <param key="customCO2" value="403.255"/>
    </vType>
    <vehicle id="25" type="F708503_177" depart="25.00">
        <route edges="-60 52 51 50#1 50#0 49 80 79 78#1 78#0 77 -31 -32"/>
    </vehicle>
    <vType id="veh_12-AV1H_1329" length="5.00" maxSpeed="33.00" vClass="passenger" emissionClass="HBEFA3/PC_G_EU4">
        <param key="customCO2" value="159.749781925"/>
    </vType>
    <vehicle id="26" type="veh_12-AV1H_1329" depart="26.00">
        <route edges="-43 -8 34 15 -28 -29 1 0 -65 -5 75"/>
    </vehicle>
    <vType id="APA00017_506" length="5.00" maxSpeed="33.00" vClass="passenger" emissionClass="HBEFA3/PC_G_EU4">
        <param key="customCO2" value="405.92968348"/>
    </vType>
    <vehicle id="27" type="APA00017_506" depart="27.00">
        <route edges="23 22 21 20 2"/>
    </vehicle>
    <vType id="veh_145HV412DC_346" length="5.00" maxSpeed="33.00" vClass="passenger" emissionClass="HBEFA3/PC_G_EU4">
        <param key="customCO2" value="190.72894304375"/>
    </vType>
    <vehicle id="28" type="veh_145HV412DC_346" depart="28.00">
        <route edges="-29 -2 -3 -44 -22 -23 4"/>
    </vehicle>
    <vType id="C117E20DETC-Z5021-3_970" length="5.00" maxSpeed="33.00" vClass="passenger" emissionClass="HBEFA3/PC_G_EU4">
        <param key="customCO2" value="239.475"/>
    </vType>
    <vehicle id="29" type="C117E20DETC-Z5021-3_970" depart="29.00">
        <route edges="-28 -29 1 -41 -18 28 -25 -61"/>
    </vehicle>
    <vType id="A451E10-Z8010_1071" length="5.00" maxSpeed="33.00" vClass="passenger" emissionClass="HBEFA3/PC_G_EU4">
        <param key="customCO2" value="177.725"/>
    </vType>
    <vehicle id="30" type="A451E10-Z8010_1071" depart="30.00">
        <route edges="8 7 6 -66 -47 80 79 78#1 78#0 77 24 23 22"/>
    </vehicle>
    <vType id="veh_1412P03137_316" length="5.00" maxSpeed="33.00" vClass="passenger" emissionClass="HBEFA3/PC_G_EU4">
        <param key="customCO2" value="213.47769305731708"/>
    </vType>
    <vehicle id="31" type="veh_1412P03137_316" depart="31.00">
        <route edges="1 -41 -18 28 -25 -61 3"/>
    </vehicle>
    <vType id="AWE503_1168" length="5.00" maxSpeed="33.00" vClass="passenger" emissionClass="HBEFA3/PC_G_EU4">
        <param key="customCO2" value="225.41666666666666"/>
    </vType>
    <vehicle id="32" type="AWE503_1168" depart="32.00">
        <route edges="61 -13 16 -30 -76 -78#0 -78#1 -79 -80 47"/>
    </vehicle>
    <vType id="K478507_100" length="5.00" maxSpeed="33.00" vClass="passenger" emissionClass="HBEFA3/PC_G_EU4">
        <param key="customCO2" value="211.3125"/>
    </vType>
    <vehicle id="33" type="K478507_100" depart="33.00">
        <route edges="-38 -12 -13 -14 -10 -11"/>
    </vehicle>
    <vType id="EM100006_482" length="5.00" maxSpeed="33.00" vClass="passenger" emissionClass="HBEFA3/PC_G_EU4">
        <param key="customCO2" value="201.21736311724138"/>
    </vType>
    <vehicle id="34" type="EM100006_482" depart="34.00">
        <route edges="-50#0 -50#1 -51 -52 -81 -60 52 51 50#1 50#0 49 80 79 78#1 78#0 77 30 -10 -11 15 -28 18 -42 -43"/>
    </vehicle>
    <vehicle id="35" type="CL100196_488" depart="35.00">
        <route edges="-32 -68 -69 4 3 2 1 0 -65 -5 75"/>
    </vehicle>
    <vehicle id="36" type="EM100006_482" depart="36.00">
        <route edges="66 65 -0 -1 29 28 -25 -38 -12 -13 16 -30 -76 -78#0 -78#1 -79 -80 -48 -50#0"/>
    </vehicle>
    <vType id="K3DS10300_1253" length="5.00" maxSpeed="33.00" vClass="passenger" emissionClass="HBEFA3/PC_G_EU4">
        <param key="customCO2" value="365.6594335802469"/>
    </vType>
    <vehicle id="37" type="K3DS10300_1253" depart="37.00">
        <route edges="24 4 3 2 1 0 -65"/>
    </vehicle>
    <vType id="EGAA1C_557" length="5.00" maxSpeed="33.00" vClass="passenger" emissionClass="HBEFA3/PC_G_EU4">
        <param key="customCO2" value="191.30599999999998"/>
    </vType>
    <vehicle id="38" type="EGAA1C_557" depart="38.00">
        <route edges="7 6 -66 -47 80 79 78#1 78#0 77 30 -10 -11 15 -28 18 17 -74"/>
    </vehicle>
    <vType id="veh_201604_1439" length="5.00" maxSpeed="33.00" vClass="passenger" emissionClass="HBEFA3/PC_G_EU4">
        <param key="customCO2" value="247.5"/>
    </vType>
    <vehicle id="39" type="veh_201604_1439" depart="39.00">
        <route edges="-43 -8 34 15 -28 -29 1 -41"/>
    </vehicle>
    <vType id="veh_07-GL1A_1360" length="5.00" maxSpeed="33.00" vClass="passenger" emissionClass="HBEFA3/PC_G_EU4">
        <param key="customCO2" value="371.13698925"/>
    </vType>
    <vehicle id="40" type="veh_07-GL1A_1360" depart="40.00">
        <route edges="15 -28 18 -42 -43"/>
    </vehicle>
    <vType id="DME679_682" length="5.00" maxSpeed="33.00" vClass="passenger" emissionClass="HBEFA3/PC_G_EU4">
        <param key="customCO2" value="343.5"/>
    </vType>
    <vehicle id="41" type="DME679_682" depart="41.00">
        <route edges="17 -74 -75 -7 -8 34 -36 -38 -12 -13 16 -30 24 69"/>
    </vehicle>
    <vType id="veh_201608_1414" length="5.00" maxSpeed="33.00" vClass="passenger" emissionClass="HBEFA3/PC_G_EU4">
        <param key="customCO2" value="243.5"/>
    </vType>
    <vehicle id="42" type="veh_201608_1414" depart="42.00">
        <route edges="-65 -5 -7 -8 34 -36"/>
    </vehicle>
    <vType id="BP33-3.5-H-122_484" length="5.00" maxSpeed="33.00" vClass="passenger" emissionClass="HBEFA3/PC_G_EU4">
        <param key="customCO2" value="346.0180588235294"/>
    </vType>
    <vehicle id="43" type="BP33-3.5-H-122_484" depart="43.00">
        <route edges="80 79 78#1 78#0 77 -31 -58 -69 -24 -76 -78#0 -78#1 -79"/>
    </vehicle>
    <vType id="veh_256W3303_1269" length="5.00" maxSpeed="33.00" vClass="passenger" emissionClass="HBEFA3/PC_G_EU4">
        <param key="customCO2" value="442.5876235555556"/>
    </vType>
    <vehicle id="44" type="veh_256W3303_1269" depart="44.00">
        <route edges="-19 -3 61 -13"/>
    </vehicle>
    <vType id="YD5N0AU25A2_775" length="5.00" maxSpeed="33.00" vClass="passenger" emissionClass="HBEFA3/PC_G_EU4">
        <param key="customCO2" value="254.83986289999999"/>
    </vType>
    <vehicle id="45" type="YD5N0AU25A2_775" depart="45.00">
        <route edges="-20 62 -44 21"/>
    </vehicle>
    <vType id="EGAA1C_559" length="5.00" maxSpeed="33.00" vClass="passenger" emissionClass="HBEFA3/PC_G_EU4">
        <param key="customCO2" value="196.04640720909092"/>
    </vType>
    <vehicle id="46" type="EGAA1C_559" depart="46.00">
        <route edges="49 80 79 78#1 78#0 77 -31 -32 -68"/>
    </vehicle>
    <vType id="T740204_1091" length="5.00" maxSpeed="33.00" vClass="passenger" emissionClass="HBEFA3/PC_G_EU4">
        <param key="customCO2" value="229.6885199888889"/>
    </vType>
    <vehicle id="47" type="T740204_1091" depart="47.00">
        <route edges="-14 -10 -11 15 -28 -29 1 -41 -18 28 -25 -61"/>
    </vehicle>
    <vType id="E6NA1A_566" length="5.00" maxSpeed="33.00" vClass="passenger" emissionClass="HBEFA3/PC_G_EU4">
        <param key="customCO2" value="217.15020105"/>
    </vType>
    <vehicle id="48" type="E6NA1A_566" depart="48.00">
        <route edges="80 79 78#1 78#0 77 -31 -58 -69 -24 -76 -78#0 -78#1 -79 -80"/>
    </vehicle>
    <vType id="FX99511_85" length="5.00" maxSpeed="33.00" vClass="passenger" emissionClass="HBEFA3/PC_G_EU4">
        <param key="customCO2" value="237.36569325000002"/>
    </vType>
    <vehicle id="49" type="FX99511_85" depart="49.00">
        <route edges="78#1 78#0 77 24 69 68 67 66 65"/>
    </vehicle>
    <vType id="AM71-2.5-C-947_918" length="5.00" maxSpeed="33.00" vClass="passenger" emissionClass="HBEFA3/PC_G_EU4">
        <param key="customCO2" value="227.80966666666666"/>
    </vType>
    <vehicle id="50" type="AM71-2.5-C-947_918" depart="50.00">
        <route edges="-1 29 18 -42 -43 -8 34"/>
    </vehicle>
    <vType id="veh_08-ZP1M_1354" length="5.00" maxSpeed="33.00" vClass="passenger" emissionClass="HBEFA3/PC_G_EU4">
        <param key="customCO2" value="218.2406692"/>
    </vType>
    <vehicle id="51" type="veh_08-ZP1M_1354" depart="51.00">
        <route edges="29 28 -25 -38 -12 -13 16 -30 -76 -78#0 -78#1 -79 -80 -48 -50#0 -50#1 -51 -52 -81"/>
    </vehicle>
    <vType id="F145016_164" length="5.00" maxSpeed="33.00" vClass="passenger" emissionClass="HBEFA3/PC_G_EU4">
        <param key="customCO2" value="232.91909189999998"/>
    </vType>
    <vehicle id="52" type="F145016_164" depart="52.00">
        <route edges="-43 -8 34 -36 -38 -12 -13 16 -30 24 23 22"/>
    </vehicle>
    <vType id="K290728_92" length="5.00" maxSpeed="33.00" vClass="passenger" emissionClass="HBEFA3/PC_G_EU4">
        <param key="customCO2" value="213.041473775"/>
    </vType>
    <vehicle id="53" type="K290728_92" depart="53.00">
        <route edges="-20 62 -4 -24 -31 -58 -69"/>
    </vehicle>
    <vType id="DMB133_714" length="5.00" maxSpeed="33.00" vClass="passenger" emissionClass="HBEFA3/PC_G_EU4">
        <param key="customCO2" value="378.5"/>
    </vType>
    <vehicle id="54" type="DMB133_714" depart="54.00">
        <route edges="-73 -17 41 0 -65 -66 -47 80 79 78#1 78#0"/>
    </vehicle>
    <vType id="WH94501_1087" length="5.00" maxSpeed="33.00" vClass="passenger" emissionClass="HBEFA3/PC_G_EU4">
        <param key="customCO2" value="234.80249999999998"/>
    </vType>
    <vehicle id="55" type="WH94501_1087" depart="55.00">
        <route edges="66 65 -0 -1 29 18 -42 -43"/>
    </vehicle>
    <vType id="BTB096_1162" length="5.00" maxSpeed="33.00" vClass="passenger" emissionClass="HBEFA3/PC_G_EU4">
        <param key="customCO2" value="236.2"/>
    </vType>
    <vehicle id="56" type="BTB096_1162" depart="56.00">
        <route edges="-78#1 -79 -80 47 66 65 -0 -1 -2 -3"/>
    </vehicle>
    <vType id="E3UJ-BY62_72" length="5.00" maxSpeed="33.00" vClass="passenger" emissionClass="HBEFA3/PC_G_EU4">
        <param key="customCO2" value="492.53125"/>
    </vType>
    <vehicle id="57" type="E3UJ-BY62_72" depart="57.00">
        <route edges="7 6 -66 -47 -48 -50#0 -50#1 -51 -52 -81 -60 52 51 50#1 50#0 49 47 66"/>
    </vehicle>
    <vType id="veh_15-AZ3A_846" length="5.00" maxSpeed="33.00" vClass="passenger" emissionClass="HBEFA3/PC_G_EU4">
        <param key="customCO2" value="266.48021738333335"/>
    </vType>
    <vehicle id="58" type="veh_15-AZ3A_846" depart="58.00">
        <route edges="-48 -50#0 -50#1 -51 -52 -81 -60 52 51 50#1 50#0 49 80 79 78#1 78#0 77 24 23 22"/>
    </vehicle>
    <vehicle id="59" type="veh_201210_1415" depart="59.00">
        <route edges="2 29 28 -25"/>
    </vehicle>
    <vehicle id="60" type="C117E20DETC-Z5021-3_970" depart="60.00">
        <route edges="43 42 41 0 -65 -66 -47 -48 -50#0 -50#1 -51 -52 -81"/>
    </vehicle>
    <vType id="K5LXC6554_934" length="5.00" maxSpeed="33.00" vClass="passenger" emissionClass="HBEFA3/PC_G_EU4">
        <param key="customCO2" value="259.874936"/>
    </vType>
    <vehicle id="61" type="K5LXC6554_934" depart="61.00">
        <route edges="47 -67 33 31 -76 -78#0 -78#1 -79 -80"/>
    </vehicle>
    <vType id="veh_12-ZW3H_1343" length="5.00" maxSpeed="33.00" vClass="passenger" emissionClass="HBEFA3/PC_G_EU4">
        <param key="customCO2" value="158.16545382666666"/>
    </vType>
    <vehicle id="62" type="veh_12-ZW3H_1343" depart="62.00">
        <route edges="-0 -1 29 28 -25 -38 -12 -13 16 -30 -76 -78#0 -78#1 -79 -80 -48 -50#0 -50#1"/>
    </vehicle>
    <vType id="HRE758_716" length="5.00" maxSpeed="33.00" vClass="passenger" emissionClass="HBEFA3/PC_G_EU4">
        <param key="customCO2" value="301.25"/>
    </vType>
    <vehicle id="63" type="HRE758_716" depart="63.00">
        <route edges="-10 -11 15 -28 -29 1 0 -65 -5 75 74"/>
    </vehicle>
    <vType id="veh_2418Z46934_284" length="5.00" maxSpeed="33.00" vClass="passenger" emissionClass="HBEFA3/PC_G_EU4">
        <param key="customCO2" value="225.16899999999998"/>
    </vType>
    <vehicle id="64" type="veh_2418Z46934_284" depart="64.00">
        <route edges="67 -47 -48 -50#0 -50#1 -51 -52 -81 -60 52"/>
    </vehicle>
    <vType id="FBF-RH19_1312" length="5.00" maxSpeed="33.00" vClass="passenger" emissionClass="HBEFA3/PC_G_EU4">
        <param key="customCO2" value="226.9019937857143"/>
    </vType>
    <vehicle id="65" type="FBF-RH19_1312" depart="65.00">
        <route edges="-5 -7 -8 34 -36 -38 -12 -13 -14"/>
    </vehicle>
    <vType id="UB3R6AU01A5_789" length="5.00" maxSpeed="33.00" vClass="passenger" emissionClass="HBEFA3/PC_G_EU4">
        <param key="customCO2" value="187.75100460000002"/>
    </vType>
    <vehicle id="66" type="UB3R6AU01A5_789" depart="66.00">
        <route edges="66 65 -0 -1 29 28 -25 -38 -12 -13 -14 -10 46 8 7 6 -66 -47 80 79 78#1 78#0 77"/>
    </vehicle>
    <vType id="DL500090_437" length="5.00" maxSpeed="33.00" vClass="passenger" emissionClass="HBEFA3/PC_G_EU4">
        <param key="customCO2" value="167.12367469999998"/>
    </vType>
    <vehicle id="67" type="DL500090_437" depart="67.00">
        <route edges="-19 -3 -4 -24 -76 -78#0"/>
    </vehicle>
    <vType id="EB11-CA72_926" length="5.00" maxSpeed="33.00" vClass="passenger" emissionClass="HBEFA3/PC_G_EU4">
        <param key="customCO2" value="353.33735875"/>
    </vType>
    <vehicle id="68" type="EB11-CA72_926" depart="68.00">
        <route edges="-17 41 0 -73 -74 -75 -7 43"/>
    </vehicle>
    <vehicle id="69" type="veh_251GGV4700_341" depart="69.00">
        <route edges="43 42 -18 28 -25 -61 -44 -22"/>
    </vehicle>
    <vType id="L5FBB0722_433" length="5.00" maxSpeed="33.00" vClass="passenger" emissionClass="HBEFA3/PC_G_EU4">
        <param key="customCO2" value="230.50833749999998"/>
    </vType>
    <vehicle id="70" type="L5FBB0722_433" depart="70.00">
        <route edges="-75 -7 43 42 41 0"/>
    </vehicle>
    <vType id="T739201_1078" length="5.00" maxSpeed="33.00" vClass="passenger" emissionClass="HBEFA3/PC_G_EU4">
        <param key="customCO2" value="206.085"/>
    </vType>
    <vehicle id="71" type="T739201_1078" depart="71.00">
        <route edges="-43 -8 34 -36 -38 -12 -13 16 -30 -76 -78#0 -78#1 -79 -80 47 66"/>
    </vehicle>
    <vType id="A207E30DETC-Z5011-1_994" length="5.00" maxSpeed="33.00" vClass="passenger" emissionClass="HBEFA3/PC_G_EU4">
        <param key="customCO2" value="279.245"/>
    </vType>
    <vehicle id="72" type="A207E30DETC-Z5011-1_994" depart="72.00">
        <route edges="-68 -69 -24 -31 -32"/>
    </vehicle>
    <vType id="W205E20DETC-Z6029_959" length="5.00" maxSpeed="33.00" vClass="passenger" emissionClass="HBEFA3/PC_G_EU4">
        <param key="customCO2" value="213.995"/>
    </vType>
    <vehicle id="73" type="W205E20DETC-Z6029_959" depart="73.00">
        <route edges="-81 -60 52 51 50#1 50#0 49 80 79 78#1 78#0 77 24 4"/>
    </vehicle>
    <vehicle id="74" type="veh_201604_1439" depart="74.00">
        <route edges="-31 -58 -69 -24 -76 -78#0 -78#1 -79 -80 -48 -50#0"/>
    </vehicle>
    <vType id="C451E10-Z2027_1073" length="5.00" maxSpeed="33.00" vClass="passenger" emissionClass="HBEFA3/PC_G_EU4">
        <param key="customCO2" value="218.506639825"/>
    </vType>
    <vehicle id="75" type="C451E10-Z2027_1073" depart="75.00">
        <route edges="80 79 78#1 78#0 77 24 23"/>
    </vehicle>
    <vehicle id="76" type="ECBJ1C_594" depart="76.00">
        <route edges="-69 -24 30 -10 -11 15 -28 18 -42 -43 -8"/>
    </vehicle>
    <vType id="LKDTT066_871" length="5.00" maxSpeed="33.00" vClass="passenger" emissionClass="HBEFA3/PC_G_EU4">
        <param key="customCO2" value="427.845"/>
    </vType>
    <vehicle id="77" type="LKDTT066_871" depart="77.00">
        <route edges="-21 -22 -23 -24 30 -10 -11 -36 -38"/>
    </vehicle>
    <vType id="AWE318_1172" length="5.00" maxSpeed="33.00" vClass="passenger" emissionClass="HBEFA3/PC_G_EU4">
        <param key="customCO2" value="237.33333333333334"/>
    </vType>
    <vehicle id="78" type="AWE318_1172" depart="78.00">
        <route edges="-52 -81 -60 52 51 50#1 50#0 49 80 79 78#1 78#0 77 30 -10 -11 15 -28 18 17"/>
    </vehicle>
    <vType id="A696623_95" length="5.00" maxSpeed="33.00" vClass="passenger" emissionClass="HBEFA3/PC_G_EU4">
        <param key="customCO2" value="246.6497916666667"/>
    </vType>
    <vehicle id="79" type="A696623_95" depart="79.00">
        <route edges="-38 -12 -13 -14 -10 -11 -36"/>
    </vehicle>
    <vType id="VL64015_185" length="5.00" maxSpeed="33.00" vClass="passenger" emissionClass="HBEFA3/PC_G_EU4">
        <param key="customCO2" value="246.0525"/>
    </vType>
    <vehicle id="80" type="VL64015_185" depart="80.00">
        <route edges="-17 -18 28 -25 -61 -44 21"/>
    </vehicle>
    <vType id="CL100061_486" length="5.00" maxSpeed="33.00" vClass="passenger" emissionClass="HBEFA3/PC_G_EU4">
        <param key="customCO2" value="207.90560454545457"/>
    </vType>
    <vehicle id="81" type="CL100061_486" depart="81.00">
        <route edges="-38 -12 -13 16 -30 24 69"/>
    </vehicle>
    <vType id="ECBJ1C_595" length="5.00" maxSpeed="33.00" vClass="passenger" emissionClass="HBEFA3/PC_G_EU4">
        <param key="customCO2" value="150.61906249999998"/>
    </vType>
    <vehicle id="82" type="ECBJ1C_595" depart="82.00">
        <route edges="62 3 2 1 0 -73 -17"/>
    </vehicle>
    <vType id="ECN03A_603" length="5.00" maxSpeed="33.00" vClass="passenger" emissionClass="HBEFA3/PC_G_EU4">
        <param key="customCO2" value="320.945"/>
    </vType>
    <vehicle id="83" type="ECN03A_603" depart="83.00">
        <route edges="-4 23 22 21 20 19 28"/>
    </vehicle>
    <vType id="veh_6ECPEG1-024_904" length="5.00" maxSpeed="33.00" vClass="passenger" emissionClass="HBEFA3/PC_G_EU4">
        <param key="customCO2" value="215.927673175"/>
    </vType>
    <vehicle id="84" type="veh_6ECPEG1-024_904" depart="84.00">
        <route edges="-32 -68 -69 4 -44 -22 -23"/>
    </vehicle>
    <vType id="veh_3066K77727_250" length="5.00" maxSpeed="33.00" vClass="passenger" emissionClass="HBEFA3/PC_G_EU4">
        <param key="customCO2" value="317.15"/>
    </vType>
    <vehicle id="85" type="veh_3066K77727_250" depart="85.00">
        <route edges="75 -59 -43 -8 34 -36 -38 -12 -13 16"/>
    </vehicle>
    <vType id="F600612_117" length="5.00" maxSpeed="33.00" vClass="passenger" emissionClass="HBEFA3/PC_G_EU4">
        <param key="customCO2" value="250.51625"/>
    </vType>
    <vehicle id="86" type="F600612_117" depart="86.00">
        <route edges="-75 -7 -8 34 -36 -38 -12 -13 16 -30 -76 -78#0 -78#1 -79 -80 47"/>
    </vehicle>
    <vType id="veh_3ETTP008_874" length="5.00" maxSpeed="33.00" vClass="passenger" emissionClass="HBEFA3/PC_G_EU4">
        <param key="customCO2" value="290.595"/>
    </vType>
    <vehicle id="87" type="veh_3ETTP008_874" depart="87.00">
        <route edges="50#1 50#0 49 80 79 78#1 78#0 77 30 -10 -11 -36 -38 -12 -13 16 -30"/>
    </vehicle>
    <vType id="EGBB1M_558" length="5.00" maxSpeed="33.00" vClass="passenger" emissionClass="HBEFA3/PC_G_EU4">
        <param key="customCO2" value="210.9025"/>
    </vType>
    <vehicle id="88" type="EGBB1M_558" depart="88.00">
        <route edges="-2 -3 -4 -24 -31 -58 -69"/>
    </vehicle>
    <vType id="VG4L3AU21A2_802" length="5.00" maxSpeed="33.00" vClass="passenger" emissionClass="HBEFA3/PC_G_EU4">
        <param key="customCO2" value="373.98096"/>
    </vType>
    <vehicle id="89" type="VG4L3AU21A2_802" depart="89.00">
        <route edges="-68 -69 -24 30 -10 -11 15 -28 18 17 -74"/>
    </vehicle>
    <vType id="veh_8AU1-2.0-F-966_405" length="5.00" maxSpeed="33.00" vClass="passenger" emissionClass="HBEFA3/PC_G_EU4">
        <param key="customCO2" value="242.493"/>
    </vType>
    <vehicle id="90" type="veh_8AU1-2.0-F-966_405" depart="90.00">
        <route edges="4 3 2 29"/>
    </vehicle>
    <vType id="AU373-6-0813_16_18" length="5.00" maxSpeed="33.00" vClass="passenger" emissionClass="HBEFA3/PC_G_EU4">
        <param key="customCO2" value="176.1721178"/>
    </vType>
    <vehicle id="91" type="AU373-6-0813_16_18" depart="91.00">
        <route edges="8 7 6 -66 -47 80 79 78#1 78#0 77 30 -10 -11 15 -28 -29 -2"/>
    </vehicle>
    <vType id="BKA00059_471" length="5.00" maxSpeed="33.00" vClass="passenger" emissionClass="HBEFA3/PC_G_EU4">
        <param key="customCO2" value="361.116"/>
    </vType>
    <vehicle id="92" type="BKA00059_471" depart="92.00">
        <route edges="-66 -47 -48 -50#0 -50#1 -51 -52"/>
    </vehicle>
    <vType id="HTF3FUP109A_782" length="5.00" maxSpeed="33.00" vClass="passenger" emissionClass="HBEFA3/PC_G_EU4">
        <param key="customCO2" value="170.8097"/>
    </vType>
    <vehicle id="93" type="HTF3FUP109A_782" depart="93.00">
        <route edges="65 -0 -1 29 -19 2 1 -41"/>
    </vehicle>
    <vType id="KBE-LV74_1304" length="5.00" maxSpeed="33.00" vClass="passenger" emissionClass="HBEFA3/PC_G_EU4">
        <param key="customCO2" value="271.79336393125"/>
    </vType>
    <vehicle id="94" type="KBE-LV74_1304" depart="94.00">
        <route edges="-30 24 4 3 2 1 0 -73"/>
    </vehicle>
    <vehicle id="95" type="C117E20DETC-Z5021-3_970" depart="95.00">
        <route edges="-68 -69 4 -44"/>
    </vehicle>
    <vType id="DPC240_683" length="5.00" maxSpeed="33.00" vClass="passenger" emissionClass="HBEFA3/PC_G_EU4">
        <param key="customCO2" value="227.0"/>
    </vType>
    <vehicle id="96" type="DPC240_683" depart="96.00">
        <route edges="-41 17 73"/>
    </vehicle>
    <vType id="HSB052_697" length="5.00" maxSpeed="33.00" vClass="passenger" emissionClass="HBEFA3/PC_G_EU4">
        <param key="customCO2" value="225.5625"/>
    </vType>
    <vehicle id="97" type="HSB052_697" depart="97.00">