<?xml version="1.0" encoding="UTF-8"?>

<!-- generated on 2026-03-01 10:37:10 by Eclipse SUMO duarouter Version 1.24.0
<duarouterConfiguration xmlns:xsi="http://www.w3.org/2001/XMLSchema-instance" xsi:noNamespaceSchemaLocation="http://sumo.dlr.de/xsd/duarouterConfiguration.xsd">

    <input>
        <net-file value="C:\Documents\Projects\Senior-Project\SUMO\Rev-4\Town03.net.xml"/>
        <additional-files value="C:\Documents\Projects\Senior-Project\SUMO\Rev-4\vtypes.xml"/>
        <route-files value="C:\Documents\Projects\Senior-Project\SUMO\Rev-4\custom.trips.xml"/>
    </input>

    <output>
        <output-file value="C:\Documents\Projects\Senior-Project\SUMO\Rev-4\custom.rou.xml"/>
    </output>

</duarouterConfiguration>
-->

<routes xmlns:xsi="http://www.w3.org/2001/XMLSchema-instance" xsi:noNamespaceSchemaLocation="http://sumo.dlr.de/xsd/routes_file.xsd">
    <vType id="CDH1-0.0-L-346_485" length="5.00" maxSpeed="33.00" vClass="passenger" emissionClass="HBEFA3/PC_G_EU4">
        <param key="customCO2" value="212.41598260869566"/>
    </vType>
    <vehicle id="0" type="CDH1-0.0-L-346_485" depart="0.00">
        <route edges="22 21 62 61 -13 -14 -10"/>
    </vehicle>
    <vType id="CL100061_486" length="5.00" maxSpeed="33.00" vClass="passenger" emissionClass="HBEFA3/PC_G_EU4">
        <param key="customCO2" value="207.90560454545457"/>
    </vType>
    <vehicle id="1" type="CL100061_486" depart="1.00">
        <route edges="-44 21 62 61 -13 -14 -10 -11 -36"/>
    </vehicle>
    <vType id="veh_145HV284DM_345" length="5.00" maxSpeed="33.00" vClass="passenger" emissionClass="HBEFA3/PC_G_EU4">
        <param key="customCO2" value="219.967875"/>
    </vType>
    <vehicle id="2" type="veh_145HV284DM_345" depart="2.00">
        <route edges="4 3 2 29"/>
    </vehicle>
    <vType id="EBV02A_600" length="5.00" maxSpeed="33.00" vClass="passenger" emissionClass="HBEFA3/PC_G_EU4">
        <param key="customCO2" value="300.635"/>
    </vType>
    <vehicle id="3" type="EBV02A_600" depart="3.00">
        <route edges="68 67 66 65 -0 -1 29 -19"/>
    </vehicle>
    <vType id="YD5N0AU21A2_774" length="5.00" maxSpeed="33.00" vClass="passenger" emissionClass="HBEFA3/PC_G_EU4">
        <param key="customCO2" value="231.17002241607142"/>
    </vType>
    <vehicle id="4" type="YD5N0AU21A2_774" depart="4.00">
        <route edges="-68 -69 -24 30 -10 -11"/>
    </vehicle>
    <vType id="veh_2219AN8021_270" length="5.00" maxSpeed="33.00" vClass="passenger" emissionClass="HBEFA3/PC_G_EU4">
        <param key="customCO2" value="255.62470588235294"/>
    </vType>
    <vehicle id="5" type="veh_2219AN8021_270" depart="5.00">
        <route edges="-36 -38 -12 -13 16 -30 -76 -78#0 -78#1 -79"/>
    </vehicle>
    <vType id="GD5N0U01AC_629" length="5.00" maxSpeed="33.00" vClass="passenger" emissionClass="HBEFA3/PC_G_EU4">
        <param key="customCO2" value="240.09055517307692"/>
    </vType>
    <vehicle id="6" type="GD5N0U01AC_629" depart="6.00">
        <route edges="-10 -11 -36 -38 -12 -13 16 -30 -31"/>
    </vehicle>
    <vType id="veh_145HV412DC_346" length="5.00" maxSpeed="33.00" vClass="passenger" emissionClass="HBEFA3/PC_G_EU4">
        <param key="customCO2" value="190.72894304375"/>
    </vType>
    <vehicle id="7" type="veh_145HV412DC_346" depart="7.00">
        <route edges="23 22 21 20 2 1 0"/>
    </vehicle>
    <vType id="EDV-07-147_148-P7_813" length="5.00" maxSpeed="33.00" vClass="passenger" emissionClass="HBEFA3/PC_G_EU4">
        <param key="customCO2" value="709.0"/>
    </vType>
    <vehicle id="8" type="EDV-07-147_148-P7_813" depart="8.00">
        <route edges="-36 -38 -12 -13 -14 -10 -11 15 -28 18"/>
    </vehicle>
    <vType id="DPC240_683" length="5.00" maxSpeed="33.00" vClass="passenger" emissionClass="HBEFA3/PC_G_EU4">
        <param key="customCO2" value="227.0"/>
    </vType>
    <vehicle id="9" type="DPC240_683" depart="9.00">
        <route edges="50#1 50#0 49 47 66 65 -0"/>
    </vehicle>
    <vType id="EGBB1C_560" length="5.00" maxSpeed="33.00" vClass="passenger" emissionClass="HBEFA3/PC_G_EU4">
        <param key="customCO2" value="190.5014238090909"/>
    </vType>
    <vehicle id="10" type="EGBB1C_560" depart="10.00">
        <route edges="50#1 50#0 49 80 79 78#1 78#0 77 30"/>
    </vehicle>
    <vType id="PPE437_1117" length="5.00" maxSpeed="33.00" vClass="passenger" emissionClass="HBEFA3/PC_G_EU4">
        <param key="customCO2" value="236.37039206153847"/>
    </vType>
    <vehicle id="11" type="PPE437_1117" depart="11.00">
        <route edges="-52 -81 -60 52 51 50#1 50#0 49 47 66 65 -0 -1 29 28 -25"/>
    </vehicle>
    <vType id="HYF3FUP108A_640" length="5.00" maxSpeed="33.00" vClass="passenger" emissionClass="HBEFA3/PC_G_EU4">
        <param key="customCO2" value="172.38681775"/>
    </vType>
    <vehicle id="12" type="HYF3FUP108A_640" depart="12.00">
        <route edges="78#0 77 30 -10 46 8 7 6 -66 -47 -48 -50#0 -50#1 -51 -52"/>
    </vehicle>
    <vType id="DBF-DH39_1311" length="5.00" maxSpeed="33.00" vClass="passenger" emissionClass="HBEFA3/PC_G_EU4">
        <param key="customCO2" value="246.1521250625"/>
    </vType>
    <vehicle id="13" type="DBF-DH39_1311" depart="13.00">
        <route edges="-19 2 1 -41 -18 -29 -2"/>
    </vehicle>
    <vType id="JK4N0AU05A2_648" length="5.00" maxSpeed="33.00" vClass="passenger" emissionClass="HBEFA3/PC_G_EU4">
        <param key="customCO2" value="243.56581"/>
    </vType>
    <vehicle id="14" type="JK4N0AU05A2_648" depart="14.00">
        <route edges="61 -13 16 -30 24 4 3 19"/>
    </vehicle>
    <vType id="TF96000_1088" length="5.00" maxSpeed="33.00" vClass="passenger" emissionClass="HBEFA3/PC_G_EU4">
        <param key="customCO2" value="233.86"/>
    </vType>
    <vehicle id="15" type="TF96000_1088" depart="15.00">
        <route edges="50#1 50#0 49 80 79 78#1 78#0 77 24 4"/>
    </vehicle>
    <vType id="HJE320_1182" length="5.00" maxSpeed="33.00" vClass="passenger" emissionClass="HBEFA3/PC_G_EU4">
        <param key="customCO2" value="186.3"/>
    </vType>
    <vehicle id="16" type="HJE320_1182" depart="16.00">
        <route edges="-81 -60 52 51 50#1 50#0 49 80 79"/>
    </vehicle>
    <vType id="GMB013_1154" length="5.00" maxSpeed="33.00" vClass="passenger" emissionClass="HBEFA3/PC_G_EU4">
        <param key="customCO2" value="241.3781717"/>
    </vType>
    <vehicle id="17" type="GMB013_1154" depart="17.00">
        <route edges="-61 3 2 1"/>
    </vehicle>
    <vType id="veh_2489ZN4101_356" length="5.00" maxSpeed="33.00" vClass="passenger" emissionClass="HBEFA3/PC_G_EU4">
        <param key="customCO2" value="260.05"/>
    </vType>
    <vehicle id="18" type="veh_2489ZN4101_356" depart="18.00">
        <route edges="52 51 50#1 50#0 49 80 79 78#1 78#0 77 24 23 22 21 20"/>
    </vehicle>
    <vType id="AKA00007_445" length="5.00" maxSpeed="33.00" vClass="passenger" emissionClass="HBEFA3/PC_G_EU4">
        <param key="customCO2" value="201.0435"/>
    </vType>
    <vehicle id="19" type="AKA00007_445" depart="19.00">
        <route edges="65 -0 -1 29 28 -25 -38 -12 -13 16"/>
    </vehicle>
    <vType id="EHC3-2.5-L-613_513" length="5.00" maxSpeed="33.00" vClass="passenger" emissionClass="HBEFA3/PC_G_EU4">
        <param key="customCO2" value="278.886"/>
    </vType>
    <vehicle id="20" type="EHC3-2.5-L-613_513" depart="20.00">
        <route edges="31 30 -10 -11 -36 -38 -12"/>
    </vehicle>
    <vType id="XM0F4GU12A1_794" length="5.00" maxSpeed="33.00" vClass="passenger" emissionClass="HBEFA3/PC_G_EU4">
        <param key="customCO2" value="293.9634473684211"/>
    </vType>
    <vehicle id="21" type="XM0F4GU12A1_794" depart="21.00">
        <route edges="-38 -12 -13 -14 -10 46 8 7 6 -66 -47"/>
    </vehicle>
    <vType id="L5FBB0722_433" length="5.00" maxSpeed="33.00" vClass="passenger" emissionClass="HBEFA3/PC_G_EU4">
        <param key="customCO2" value="230.50833749999998"/>
    </vType>
    <vehicle id="22" type="L5FBB0722_433" depart="22.00">
        <route edges="-18 28 -25 -38"/>
    </vehicle>
    <vType id="veh_12-SK2A_1370" length="5.00" maxSpeed="33.00" vClass="passenger" emissionClass="HBEFA3/PC_G_EU4">
        <param key="customCO2" value="457.9984050405797"/>
    </vType>
    <vehicle id="23" type="veh_12-SK2A_1370" depart="23.00">
        <route edges="-2 -3 -44"/>
    </vehicle>
    <vType id="veh_621AFP2008_251" length="5.00" maxSpeed="33.00" vClass="passenger" emissionClass="HBEFA3/PC_G_EU4">
        <param key="customCO2" value="380.81086923076924"/>
    </vType>
    <vehicle id="24" type="veh_621AFP2008_251" depart="24.00">
        <route edges="22 21 62 61 -13 16 -30 -76 -78#0 -78#1 -79 -80 -48 -50#0 -50#1 -51 -52 -81 -60"/>
    </vehicle>
    <vType id="W212E55DETC-Z2023-6_1009" length="5.00" maxSpeed="33.00" vClass="passenger" emissionClass="HBEFA3/PC_G_EU4">
        <param key="customCO2" value="376.98499999999996"/>
    </vType>
    <vehicle id="25" type="W212E55DETC-Z2023-6_1009" depart="25.00">
        <route edges="-60 52 51 50#1 50#0 49 80 79 78#1 78#0 77 -31 -32"/>
    </vehicle>
    <vType id="veh_0J77228_210" length="5.00" maxSpeed="33.00" vClass="passenger" emissionClass="HBEFA3/PC_G_EU4">
        <param key="customCO2" value="414.83923076923077"/>
    </vType>
    <vehicle id="26" type="veh_0J77228_210" depart="26.00">
        <route edges="-43 -8 34 15 -28 -29 1 0 -65 -5 75"/>
    </vehicle>
    <vType id="ER317196_495" length="5.00" maxSpeed="33.00" vClass="passenger" emissionClass="HBEFA3/PC_G_EU4">
        <param key="customCO2" value="149.1976456"/>
    </vType>
    <vehicle id="27" type="ER317196_495" depart="27.00">
        <route edges="23 22 21 20 2"/>
    </vehicle>
    <vType id="veh_151GRN4058_354" length="5.00" maxSpeed="33.00" vClass="passenger" emissionClass="HBEFA3/PC_G_EU4">
        <param key="customCO2" value="213.4667592"/>
    </vType>
    <vehicle id="28" type="veh_151GRN4058_354" depart="28.00">
        <route edges="-29 -2 -3 -44 -22 -23 4"/>
    </vehicle>
    <vType id="L2FFF1237_431" length="5.00" maxSpeed="33.00" vClass="passenger" emissionClass="HBEFA3/PC_G_EU4">
        <param key="customCO2" value="221.21946285714284"/>
    </vType>
    <vehicle id="29" type="L2FFF1237_431" depart="29.00">
        <route edges="-28 -29 1 -41 -18 28 -25 -61"/>
    </vehicle>
    <vType id="HTF3FUP110A_783" length="5.00" maxSpeed="33.00" vClass="passenger" emissionClass="HBEFA3/PC_G_EU4">
        <param key="customCO2" value="175.01415"/>
    </vType>
    <vehicle id="30" type="HTF3FUP110A_783" depart="30.00">
        <route edges="8 7 6 -66 -47 80 79 78#1 78#0 77 24 23 22"/>
    </vehicle>
    <vType id="CBE-DK14_1295" length="5.00" maxSpeed="33.00" vClass="passenger" emissionClass="HBEFA3/PC_G_EU4">
        <param key="customCO2" value="243.03768082717394"/>
    </vType>
    <vehicle id="31" type="CBE-DK14_1295" depart="31.00">
        <route edges="1 -41 -18 28 -25 -61 3"/>
    </vehicle>
    <vType id="GLB066_708" length="5.00" maxSpeed="33.00" vClass="passenger" emissionClass="HBEFA3/PC_G_EU4">
        <param key="customCO2" value="237.5"/>
    </vType>
    <vehicle id="32" type="GLB066_708" depart="32.00">
        <route edges="61 -13 16 -30 -76 -78#0 -78#1 -79 -80 47"/>
    </vehicle>
    <vType id="L2FFF2598_430" length="5.00" maxSpeed="33.00" vClass="passenger" emissionClass="HBEFA3/PC_G_EU4">
        <param key="customCO2" value="216.45219046842104"/>
    </vType>
    <vehicle id="33" type="L2FFF2598_430" depart="33.00">
        <route edges="-38 -12 -13 -14 -10 -11"/>
    </vehicle>
    <vType id="PLF5NAUP11A_641" length="5.00" maxSpeed="33.00" vClass="passenger" emissionClass="HBEFA3/PC_G_EU4">
        <param key="customCO2" value="161.8257304"/>
    </vType>
    <vehicle id="34" type="PLF5NAUP11A_641" depart="34.00">
        <route edges="-50#0 -50#1 -51 -52 -81 -60 52 51 50#1 50#0 49 80 79 78#1 78#0 77 30 -10 -11 15 -28 18 -42 -43"/>
    </vehicle>
    <vType id="veh_304AG59457_218" length="5.00" maxSpeed="33.00" vClass="passenger" emissionClass="HBEFA3/PC_G_EU4">
        <param key="customCO2" value="337.186365625"/>
    </vType>
    <vehicle id="35" type="veh_304AG59457_218" depart="35.00">
        <route edges="-32 -68 -69 4 3 2 1 0 -65 -5 75"/>
    </vehicle>
    <vType id="L5BUU1783_767" length="5.00" maxSpeed="33.00" vClass="passenger" emissionClass="HBEFA3/PC_G_EU4">
        <param key="customCO2" value="244.1996823142857"/>
    </vType>
    <vehicle id="36" type="L5BUU1783_767" depart="36.00">
        <route edges="66 65 -0 -1 29 28 -25 -38 -12 -13 16 -30 -76 -78#0 -78#1 -79 -80 -48 -50#0"/>
    </vehicle>
    <vType id="T384700_1077" length="5.00" maxSpeed="33.00" vClass="passenger" emissionClass="HBEFA3/PC_G_EU4">
        <param key="customCO2" value="240.375"/>
    </vType>
    <vehicle id="37" type="T384700_1077" depart="37.00">
        <route edges="24 4 3 2 1 0 -65"/>
    </vehicle>
    <vType id="veh_12-NP1H_1344" length="5.00" maxSpeed="33.00" vClass="passenger" emissionClass="HBEFA3/PC_G_EU4">
        <param key="customCO2" value="158.957579915"/>
    </vType>
    <vehicle id="38" type="veh_12-NP1H_1344" depart="38.00">
        <route edges="7 6 -66 -47 80 79 78#1 78#0 77 30 -10 -11 15 -28 18 17 -74"/>
    </vehicle>
    <vType id="EBP31A_587" length="5.00" maxSpeed="33.00" vClass="passenger" emissionClass="HBEFA3/PC_G_EU4">
        <param key="customCO2" value="209.32625"/>
    </vType>
    <vehicle id="39" type="EBP31A_587" depart="39.00">
        <route edges="-43 -8 34 15 -28 -29 1 -41"/>
    </vehicle>
    <vType id="EB401A_554" length="5.00" maxSpeed="33.00" vClass="passenger" emissionClass="HBEFA3/PC_G_EU4">
        <param key="customCO2" value="245.54225996666665"/>
    </vType>
    <vehicle id="40" type="EB401A_554" depart="40.00">
        <route edges="15 -28 18 -42 -43"/>
    </vehicle>
    <vType id="D416003_116" length="5.00" maxSpeed="33.00" vClass="passenger" emissionClass="HBEFA3/PC_G_EU4">
        <param key="customCO2" value="232.96393646111108"/>
    </vType>
    <vehicle id="41" type="D416003_116" depart="41.00">
        <route edges="17 -74 -75 -7 -8 34 -36 -38 -12 -13 16 -30 24 69"/>
    </vehicle>
    <vType id="L6WDD0449_384" length="5.00" maxSpeed="33.00" vClass="passenger" emissionClass="HBEFA3/PC_G_EU4">
        <param key="customCO2" value="344.4721119866666"/>
    </vType>
    <vehicle id="42" type="L6WDD0449_384" depart="42.00">
        <route edges="-65 -5 -7 -8 34 -36"/>
    </vehicle>
    <vType id="veh_53XECSE012_337" length="5.00" maxSpeed="33.00" vClass="passenger" emissionClass="HBEFA3/PC_G_EU4">
        <param key="customCO2" value="380.78000000000003"/>
    </vType>
    <vehicle id="43" type="veh_53XECSE012_337" depart="43.00">
        <route edges="80 79 78#1 78#0 77 -31 -58 -69 -24 -76 -78#0 -78#1 -79"/>
    </vehicle>
    <vType id="veh_43C6C30928_305" length="5.00" maxSpeed="33.00" vClass="passenger" emissionClass="HBEFA3/PC_G_EU4">
        <param key="customCO2" value="419.71433333333334"/>
    </vType>
    <vehicle id="44" type="veh_43C6C30928_305" depart="44.00">
        <route edges="-19 -3 61 -13"/>
    </vehicle>
    <vType id="KHC863_1134" length="5.00" maxSpeed="33.00" vClass="passenger" emissionClass="HBEFA3/PC_G_EU4">
        <param key="customCO2" value="230.5"/>
    </vType>
    <vehicle id="45" type="KHC863_1134" depart="45.00">
        <route edges="-20 62 -44 21"/>
    </vehicle>
    <vType id="veh_221941181_269" length="5.00" maxSpeed="33.00" vClass="passenger" emissionClass="HBEFA3/PC_G_EU4">
        <param key="customCO2" value="222.79174999999998"/>
    </vType>
    <vehicle id="46" type="veh_221941181_269" depart="46.00">
        <route edges="49 80 79 78#1 78#0 77 -31 -32 -68"/>
    </vehicle>
    <vType id="veh_361_730_136_13_1384" length="5.00" maxSpeed="33.00" vClass="passenger" emissionClass="HBEFA3/PC_G_EU4">
        <param key="customCO2" value="171.3281165142857"/>
    </vType>
    <vehicle id="47" type="veh_361_730_136_13_1384" depart="47.00">
        <route edges="-14 -10 -11 15 -28 -29 1 -41 -18 28 -25 -61"/>
    </vehicle>
    <vType id="MLE432_680" length="5.00" maxSpeed="33.00" vClass="passenger" emissionClass="HBEFA3/PC_G_EU4">
        <param key="customCO2" value="327.75"/>
    </vType>
    <vehicle id="48" type="MLE432_680" depart="48.00">
        <route edges="80 79 78#1 78#0 77 -31 -58 -69 -24 -76 -78#0 -78#1 -79 -80"/>
    </vehicle>
    <vType id="EFR71C_588" length="5.00" maxSpeed="33.00" vClass="passenger" emissionClass="HBEFA3/PC_G_EU4">
        <param key="customCO2" value="191.27833333333334"/>
    </vType>
    <vehicle id="49" type="EFR71C_588" depart="49.00">
        <route edges="78#1 78#0 77 -31 -58 -69 -24 -76 -78#0 -78#1 -79 -80 47 66 65"/>
    </vehicle>
    <vType id="WH97510_1095" length="5.00" maxSpeed="33.00" vClass="passenger" emissionClass="HBEFA3/PC_G_EU4">
        <param key="customCO2" value="231.52291666666667"/>
    </vType>
    <vehicle id="50" type="WH97510_1095" depart="50.00">
        <route edges="-1 29 18 -42 -43 -8 34"/>
    </vehicle>
    <vType id="EEK11C_549" length="5.00" maxSpeed="33.00" vClass="passenger" emissionClass="HBEFA3/PC_G_EU4">
        <param key="customCO2" value="153.6335933"/>
    </vType>
    <vehicle id="51" type="EEK11C_549" depart="51.00">
        <route edges="29 28 -25 -38 -12 -13 16 -30 -76 -78#0 -78#1 -79 -80 -48 -50#0 -50#1 -51 -52 -81"/>
    </vehicle>
    <vType id="TY10009_1090" length="5.00" maxSpeed="33.00" vClass="passenger" emissionClass="HBEFA3/PC_G_EU4">
        <param key="customCO2" value="227.55605263157892"/>
    </vType>
    <vehicle id="52" type="TY10009_1090" depart="52.00">
        <route edges="-43 -8 34 -36 -38 -12 -13 16 -30 24 23 22"/>
    </vehicle>
    <vType id="EBP31A_590" length="5.00" maxSpeed="33.00" vClass="passenger" emissionClass="HBEFA3/PC_G_EU4">
        <param key="customCO2" value="218.795"/>
    </vType>
    <vehicle id="53" type="EBP31A_590" depart="53.00">
        <route edges="-20 62 61 -13 16 -30 -31 -58 -69"/>
    </vehicle>
    <vType id="veh_2418Z42999_285" length="5.00" maxSpeed="33.00" vClass="passenger" emissionClass="HBEFA3/PC_G_EU4">
        <param key="customCO2" value="267.0695"/>
    </vType>
    <vehicle id="54" type="veh_2418Z42999_285" depart="54.00">
        <route edges="-73 -17 41 0 -65 -66 -47 80 79 78#1 78#0"/>
    </vehicle>
    <vType id="HJE319_1181" length="5.00" maxSpeed="33.00" vClass="passenger" emissionClass="HBEFA3/PC_G_EU4">
        <param key="customCO2" value="209.0"/>
    </vType>
    <vehicle id="55" type="HJE319_1181" depart="55.00">
        <route edges="66 65 -0 -1 29 18 -42 -43"/>
    </vehicle>
    <vType id="EE1J1M_556" length="5.00" maxSpeed="33.00" vClass="passenger" emissionClass="HBEFA3/PC_G_EU4">
        <param key="customCO2" value="199.65799782741936"/>
    </vType>
    <vehicle id="56" type="EE1J1M_556" depart="56.00">
        <route edges="-78#1 -79 -80 47 66 65 -0 -1 -2 -3"/>
    </vehicle>
    <vType id="veh_2B30701_1093" length="5.00" maxSpeed="33.00" vClass="passenger" emissionClass="HBEFA3/PC_G_EU4">
        <param key="customCO2" value="224.7821052631579"/>
    </vType>
    <vehicle id="57" type="veh_2B30701_1093" depart="57.00">
        <route edges="7 6 -66 -47 -48 -50#0 -50#1 -51 -52 -81 -60 52 51 50#1 50#0 49 47 66"/>
    </vehicle>
    <vType id="EB11-CA52_924" length="5.00" maxSpeed="33.00" vClass="passenger" emissionClass="HBEFA3/PC_G_EU4">
        <param key="customCO2" value="248.53221238289476"/>
    </vType>
    <vehicle id="58" type="EB11-CA52_924" depart="58.00">
        <route edges="-48 -50#0 -50#1 -51 -52 -81 -60 52 51 50#1 50#0 49 80 79 78#1 78#0 77 24 23 22"/>
    </vehicle>
    <vType id="A451E10-Z8010-1_1072" length="5.00" maxSpeed="33.00" vClass="passenger" emissionClass="HBEFA3/PC_G_EU4">
        <param key="customCO2" value="177.725"/>
    </vType>
    <vehicle id="59" type="A451E10-Z8010-1_1072" depart="59.00">
        <route edges="2 29 28 -25"/>
    </vehicle>
    <vType id="JF6F4AU07AC_785" length="5.00" maxSpeed="33.00" vClass="passenger" emissionClass="HBEFA3/PC_G_EU4">
        <param key="customCO2" value="229.0969"/>
    </vType>
    <vehicle id="60" type="JF6F4AU07AC_785" depart="60.00">
        <route edges="43 42 41 0 -65 -66 -47 -48 -50#0 -50#1 -51 -52 -81"/>
    </vehicle>
    <vehicle id="61" type="EBP31A_587" depart="61.00">
        <route edges="47 -67 33 31 -76 -78#0 -78#1 -79 -80"/>
    </vehicle>
    <vType id="KJEG38_1180" length="5.00" maxSpeed="33.00" vClass="passenger" emissionClass="HBEFA3/PC_G_EU4">
        <param key="customCO2" value="211.33333333333334"/>
    </vType>
    <vehicle id="62" type="KJEG38_1180" depart="62.00">
        <route edges="-0 -1 29 28 -25 -38 -12 -13 16 -30 -76 -78#0 -78#1 -79 -80 -48 -50#0 -50#1"/>
    </vehicle>
    <vType id="EABJ1C_596" length="5.00" maxSpeed="33.00" vClass="passenger" emissionClass="HBEFA3/PC_G_EU4">
        <param key="customCO2" value="152.766021175"/>
    </vType>
    <vehicle id="63" type="EABJ1C_596" depart="63.00">
        <route edges="-10 -11 15 -28 -29 1 0 -65 -5 75 74"/>
    </vehicle>
    <vType id="HSB052_697" length="5.00" maxSpeed="33.00" vClass="passenger" emissionClass="HBEFA3/PC_G_EU4">
        <param key="customCO2" value="225.5625"/>
    </vType>
    <vehicle id="64" type="HSB052_697" depart="64.00">
        <route edges="67 -47 -48 -50#0 -50#1 -51 -52 -81 -60 52"/>
    </vehicle>
    <vType id="EL100003_487" length="5.00" maxSpeed="33.00" vClass="passenger" emissionClass="HBEFA3/PC_G_EU4">
        <param key="customCO2" value="213.54475000000002"/>
    </vType>
    <vehicle id="65" type="EL100003_487" depart="65.00">
        <route edges="-5 -7 -8 34 -36 -38 -12 -13 -14"/>
    </vehicle>
    <vType id="veh_12-ZW2H_1345" length="5.00" maxSpeed="33.00" vClass="passenger" emissionClass="HBEFA3/PC_G_EU4">
        <param key="customCO2" value="151.56278941538463"/>
    </vType>
    <vehicle id="66" type="veh_12-ZW2H_1345" depart="66.00">
        <route edges="66 65 -0 -1 29 18 41 0 -65 -66 -47 80 79 78#1 78#0 77"/>
    </vehicle>
    <vType id="X156E20DETC-Z5021-2_1018" length="5.00" maxSpeed="33.00" vClass="passenger" emissionClass="HBEFA3/PC_G_EU4">
        <param key="customCO2" value="225.29"/>
    </vType>
    <vehicle id="67" type="X156E20DETC-Z5021-2_1018" depart="67.00">
        <route edges="-19 -3 61 -13 16 -30 -76 -78#0"/>
    </vehicle>
    <vType id="K478507_100" length="5.00" maxSpeed="33.00" vClass="passenger" emissionClass="HBEFA3/PC_G_EU4">
        <param key="customCO2" value="211.3125"/>
    </vType>
    <vehicle id="68" type="K478507_100" depart="68.00">
        <route edges="-17 41 0 -73 -74 -75 -7 43"/>
    </vehicle>
    <vType id="veh_12-SK3A_1355" length="5.00" maxSpeed="33.00" vClass="passenger" emissionClass="HBEFA3/PC_G_EU4">
        <param key="customCO2" value="443.89178925416667"/>
    </vType>
    <vehicle id="69" type="veh_12-SK3A_1355" depart="69.00">
        <route edges="43 42 -18 28 -25 -61 -44 -22"/>
    </vehicle>
    <vType id="FX99510_86" length="5.00" maxSpeed="33.00" vClass="passenger" emissionClass="HBEFA3/PC_G_EU4">
        <param key="customCO2" value="244.23808162499998"/>
    </vType>
    <vehicle id="70" type="FX99510_86" depart="70.00">
        <route edges="-75 -7 43 42 41 0"/>
    </vehicle>
    <vType id="FEF00034_459" length="5.00" maxSpeed="33.00" vClass="passenger" emissionClass="HBEFA3/PC_G_EU4">
        <param key="customCO2" value="414.4023333333333"/>
    </vType>
    <vehicle id="71" type="FEF00034_459" depart="71.00">
        <route edges="-43 -8 34 -36 -38 -12 -13 16 -30 -76 -78#0 -78#1 -79 -80 47 66"/>
    </vehicle>
    <vType id="KPB087_1173" length="5.00" maxSpeed="33.00" vClass="passenger" emissionClass="HBEFA3/PC_G_EU4">
        <param key="customCO2" value="194.89688405"/>
    </vType>
    <vehicle id="72" type="KPB087_1173" depart="72.00">
        <route edges="-68 -69 -24 -31 -32"/>
    </vehicle>
    <vType id="FLB106_1114" length="5.00" maxSpeed="33.00" vClass="passenger" emissionClass="HBEFA3/PC_G_EU4">
        <param key="customCO2" value="208.0"/>
    </vType>
    <vehicle id="73" type="FLB106_1114" depart="73.00">
        <route edges="-81 -60 52 51 50#1 50#0 49 80 79 78#1 78#0 77 24 4"/>
    </vehicle>
    <vType id="FAUA-Q3A_37" length="5.00" maxSpeed="33.00" vClass="passenger" emissionClass="HBEFA3/PC_G_EU4">
        <param key="customCO2" value="338.6429472375"/>
    </vType>
    <vehicle id="74" type="FAUA-Q3A_37" depart="74.00">
        <route edges="-31 -58 -69 -24 -76 -78#0 -78#1 -79 -80 -48 -50#0"/>
    </vehicle>
    <vType id="KPB086_1170" length="5.00" maxSpeed="33.00" vClass="passenger" emissionClass="HBEFA3/PC_G_EU4">
        <param key="customCO2" value="190.460998425"/>
    </vType>
    <vehicle id="75" type="KPB086_1170" depart="75.00">
        <route edges="80 79 78#1 78#0 77 24 23"/>
    </vehicle>
    <vType id="EM103803_483" length="5.00" maxSpeed="33.00" vClass="passenger" emissionClass="HBEFA3/PC_G_EU4">
        <param key="customCO2" value="189.65333333333334"/>
    </vType>
    <vehicle id="76" type="EM103803_483" depart="76.00">
        <route edges="-69 -24 30 -10 -11 15 -28 18 -42 -43 -8"/>
    </vehicle>
    <vType id="veh_1412P03137_316" length="5.00" maxSpeed="33.00" vClass="passenger" emissionClass="HBEFA3/PC_G_EU4">
        <param key="customCO2" value="213.47769305731708"/>
    </vType>
    <vehicle id="77" type="veh_1412P03137_316" depart="77.00">
        <route edges="-21 -22 -23 -24 30 -10 -11 -36 -38"/>
    </vehicle>
    <vType id="veh_0F74534_202" length="5.00" maxSpeed="33.00" vClass="passenger" emissionClass="HBEFA3/PC_G_EU4">
        <param key="customCO2" value="304.93291228"/>
    </vType>
    <vehicle id="78" type="veh_0F74534_202" depart="78.00">
        <route edges="-52 -81 -60 52 51 50#1 50#0 49 80 79 78#1 78#0 77 30 -10 -11 15 -28 18 17"/>
    </vehicle>
    <vType id="veh_11-GL3A_1358" length="5.00" maxSpeed="33.00" vClass="passenger" emissionClass="HBEFA3/PC_G_EU4">
        <param key="customCO2" value="329.5471230690476"/>
    </vType>
    <vehicle id="79" type="veh_11-GL3A_1358" depart="79.00">
        <route edges="-38 -12 -13 -14 -10 -11 -36"/>
    </vehicle>
    <vType id="W205E20DETC-Z5022_953" length="5.00" maxSpeed="33.00" vClass="passenger" emissionClass="HBEFA3/PC_G_EU4">
        <param key="customCO2" value="300.5805555555555"/>
    </vType>
    <vehicle id="80" type="W205E20DETC-Z5022_953" depart="80.00">
        <route edges="-17 -18 28 -25 -61 -44 21"/>
    </vehicle>
    <vType id="DC91-2.0-J-268_500" length="5.00" maxSpeed="33.00" vClass="passenger" emissionClass="HBEFA3/PC_G_EU4">
        <param key="customCO2" value="175.482"/>
    </vType>
    <vehicle id="81" type="DC91-2.0-J-268_500" depart="81.00">
        <route edges="-38 -12 -13 16 -30 24 69"/>
    </vehicle>
    <vType id="GKB043_1150" length="5.00" maxSpeed="33.00" vClass="passenger" emissionClass="HBEFA3/PC_G_EU4">
        <param key="customCO2" value="302.5"/>
    </vType>
    <vehicle id="82" type="GKB043_1150" depart="82.00">
        <route edges="62 3 2 1 0 -73 -17"/>
    </vehicle>
    <vType id="FS6R6AU01AC_646" length="5.00" maxSpeed="33.00" vClass="passenger" emissionClass="HBEFA3/PC_G_EU4">
        <param key="customCO2" value="221.16311701929826"/>
    </vType>
    <vehicle id="83" type="FS6R6AU01AC_646" depart="83.00">
        <route edges="-4 23 22 21 20 19 28"/>
    </vehicle>
    <vType id="VX10HWS_817" length="5.00" maxSpeed="33.00" vClass="passenger" emissionClass="HBEFA3/PC_G_EU4">
        <param key="customCO2" value="464.0725"/>
    </vType>
    <vehicle id="84" type="VX10HWS_817" depart="84.00">
        <route edges="-32 -68 -69 4 -44 -22 -23"/>
    </vehicle>
    <vehicle id="85" type="CBE-DK14_1295" depart="85.00">
        <route edges="75 -59 -43 -8 34 -36 -38 -12 -13 16"/>
    </vehicle>
    <vType id="TD1F0GU13A1_773" length="5.00" maxSpeed="33.00" vClass="passenger" emissionClass="HBEFA3/PC_G_EU4">
        <param key="customCO2" value="241.19400000000002"/>
    </vType>
    <vehicle id="86" type="TD1F0GU13A1_773" depart="86.00">
        <route edges="-75 -7 -8 34 -36 -38 -12 -13 16 -30 -76 -78#0 -78#1 -79 -80 47"/>
    </vehicle>
    <vType id="A696623_95" length="5.00" maxSpeed="33.00" vClass="passenger" emissionClass="HBEFA3/PC_G_EU4">
        <param key="customCO2" value="246.6497916666667"/>
    </vType>
    <vehicle id="87" type="A696623_95" depart="87.00">
        <route edges="50#1 50#0 49 80 79 78#1 78#0 77 30 -10 -11 -36 -38 -12 -13 16 -30"/>
    </vehicle>
    <vType id="EDA21M_543" length="5.00" maxSpeed="33.00" vClass="passenger" emissionClass="HBEFA3/PC_G_EU4">
        <param key="customCO2" value="245.97298515604396"/>
    </vType>
    <vehicle id="88" type="EDA21M_543" depart="88.00">
        <route edges="-2 -3 61 -13 16 -30 -31 -58 -69"/>
    </vehicle>
    <vType id="TD1F0GU09A1_772" length="5.00" maxSpeed="33.00" vClass="passenger" emissionClass="HBEFA3/PC_G_EU4">
        <param key="customCO2" value="218.7999505"/>
    </vType>
    <vehicle id="89" type="TD1F0GU09A1_772" depart="89.00">
        <route edges="-68 -69 -24 30 -10 -11 15 -28 18 17 -74"/>
    </vehicle>
    <vType id="veh_14S41810_224" length="5.00" maxSpeed="33.00" vClass="passenger" emissionClass="HBEFA3/PC_G_EU4">
        <param key="customCO2" value="243.732718825"/>
    </vType>
    <vehicle id="90" type="veh_14S41810_224" depart="90.00">
        <route edges="4 3 2 29"/>
    </vehicle>
    <vType id="FL200133_492" length="5.00" maxSpeed="33.00" vClass="passenger" emissionClass="HBEFA3/PC_G_EU4">
        <param key="customCO2" value="193.70408394999998"/>
    </vType>
    <vehicle id="91" type="FL200133_492" depart="91.00">
        <route edges="8 7 6 -66 -47 80 79 78#1 78#0 77 30 -10 -11 15 -28 -29 -2"/>
    </vehicle>
    <vehicle id="92" type="EB11-CA52_924" depart="92.00">
        <route edges="-66 -47 -48 -50#0 -50#1 -51 -52"/>
    </vehicle>