<?xml version="1.0" encoding="UTF-8"?>

<!-- generated on 2025-11-06 12:00:22 by Eclipse SUMO netedit Version 1.24.0
<neteditConfiguration xmlns:xsi="http://www.w3.org/2001/XMLSchema-instance" xsi:noNamespaceSchemaLocation="http://sumo.dlr.de/xsd/neteditConfiguration.xsd">

    <input>
        <sumocfg-file value="C:\Users\Zander Erwin\Documents\Projects\Senior-Project\SUMO\Rev-4\Town03.sumocfg"/>
        <route-files value="C:\Users\Zander Erwin\Documents\Projects\Senior-Project\SUMO\Rev-4\custom.rou.xml"/>
        <sumo-net-file value="C:\Users\Zander Erwin\Documents\Projects\Senior-Project\SUMO\Rev-4\Town03.net.xml"/>
    </input>

    <output>
        <output-file value="C:\Users\Zander Erwin\Documents\Projects\Senior-Project\SUMO\Rev-4\Town03.net.xml"/>
    </output>

    <processing>
        <geometry.min-radius.fix.railways value="false"/>
        <geometry.avoid-overlap value="false"/>
        <geometry.max-grade.fix value="false"/>
        <offset.disable-normalization value="true"/>
        <lefthand value="0"/>
    </processing>

    <junctions>
        <no-turnarounds value="true"/>
        <junctions.corner-detail value="5"/>
        <junctions.limit-turn-speed value="5.50"/>
        <rectangular-lane-cut value="1"/>
    </junctions>

    <pedestrian>
        <walkingareas value="0"/>
    </pedestrian>

</neteditConfiguration>
-->

<net version="1.20" junctionCornerDetail="5" rectangularLaneCut="true" limitTurnSpeed="5.50" avoidOverlap="0" xmlns:xsi="http://www.w3.org/2001/XMLSchema-instance" xsi:noNamespaceSchemaLocation="http://sumo.dlr.de/xsd/net_file.xsd">

    <location netOffset="286.97,269.44" convBoundary="0.00,0.00,597.84,582.58" origBoundary="0.000000,0.000000,0.000000,0.000000" projParameter="+proj=tmerc +lat_0=0 +lon_0=0 +k=1 +x_0=0 +y_0=0 +datum=WGS84 +units=m  +vunits=m +no_defs "/>

    <edge id=":1019_0" function="internal">
        <lane id=":1019_0_0" index="0" allow="pedestrian" speed="2.78" length="22.65" width="2.00" shape="300.65,90.20 300.50,112.89">
            <param key="origId" value="1030_9"/>
        </lane>
        <lane id=":1019_0_1" index="1" allow="pedestrian" speed="2.78" length="22.65" width="2.00" shape="298.65,90.20 298.50,112.88">
            <param key="origId" value="1030_8"/>
        </lane>
        <lane id=":1019_0_2" index="2" disallow="all" speed="1.39" length="22.65" width="0.63" shape="297.34,90.20 297.18,112.88">
            <param key="origId" value="1030_7"/>
        </lane>
        <lane id=":1019_0_3" index="3" disallow="all" speed="1.39" length="22.65" width="2.50" shape="295.77,90.20 295.62,112.87">
            <param key="origId" value="1030_6"/>
        </lane>
        <lane id=":1019_0_4" index="4" disallow="pedestrian tram rail_urban rail rail_electric rail_fast ship" speed="13.89" length="22.65" width="3.50" shape="292.77,90.20 292.62,112.85">
            <param key="origId" value="1030_5"/>
        </lane>
        <lane id=":1019_0_5" index="5" disallow="pedestrian tram rail_urban rail rail_electric rail_fast ship" speed="13.89" length="22.65" width="3.50" shape="289.27,90.20 289.12,112.83">
            <param key="origId" value="1030_4"/>
        </lane>
        <lane id=":1019_0_6" index="6" disallow="all" speed="1.39" length="22.65" width="0.50" shape="287.27,90.20 287.12,112.82">
            <param key="origId" value="1030_3"/>
        </lane>
        <lane id=":1019_0_7" index="7" disallow="all" speed="1.39" length="22.65" width="3.50" shape="285.27,90.20 285.12,112.81">
            <param key="origId" value="1030_2"/>
        </lane>
        <lane id=":1019_0_8" index="8" disallow="all" speed="1.39" length="22.65" width="0.50" shape="283.27,90.20 283.12,112.80">
            <param key="origId" value="1030_1"/>
        </lane>
    </edge>
    <edge id=":1019_9" function="internal">
        <lane id=":1019_9_0" index="0" disallow="all" speed="1.39" length="22.56" width="2.50" shape="274.62,112.76 274.77,90.20">
            <param key="origId" value="1031_-3"/>
        </lane>
    </edge>
    <edge id=":1019_10" function="internal">
        <lane id=":1019_10_0" index="0" disallow="pedestrian tram rail_urban rail rail_electric rail_fast ship" speed="11.01" length="4.65" width="3.50" shape="277.62,112.77 276.82,108.19">
            <param key="origId" value="1020_-1"/>
        </lane>
    </edge>
    <edge id=":1019_11" function="internal">
        <lane id=":1019_11_0" index="0" disallow="pedestrian tram rail_urban rail rail_electric rail_fast ship" speed="13.89" length="22.58" width="3.50" shape="277.62,112.77 277.77,90.20">
            <param key="origId" value="1031_-2"/>
        </lane>
        <lane id=":1019_11_1" index="1" disallow="pedestrian tram rail_urban rail rail_electric rail_fast ship" speed="13.89" length="22.58" width="3.50" shape="281.12,112.79 281.27,90.20">
            <param key="origId" value="1031_-1"/>
        </lane>
    </edge>
    <edge id=":1019_13" function="internal">
        <lane id=":1019_13_0" index="0" disallow="pedestrian tram rail_urban rail rail_electric rail_fast ship" speed="11.01" length="16.13" width="3.50" shape="276.82,108.19 274.38,104.27 270.29,101.02 264.56,98.42">
            <param key="origId" value="1020_-1"/>
        </lane>
    </edge>
    <edge id=":103_0" function="internal">
        <lane id=":103_0_0" index="0" disallow="pedestrian tram rail_urban rail rail_electric rail_fast ship" speed="10.14" length="23.49" width="3.50" shape="308.16,138.65 301.29,139.39 296.37,141.84 293.39,146.01 292.38,151.88">
            <param key="origId" value="203_1"/>
            <param key="signalID" value="1997"/>
        </lane>
    </edge>
    <edge id=":103_1" function="internal">
        <lane id=":103_1_0" index="0" disallow="pedestrian tram rail_urban rail rail_electric rail_fast ship" speed="13.89" length="40.18" width="3.50" shape="308.16,138.65 267.98,138.54">
            <param key="origId" value="144_1"/>
            <param key="signalID" value="1997"/>
        </lane>
    </edge>
    <edge id=":103_2" function="internal">
        <lane id=":103_2_0" index="0" disallow="pedestrian tram rail_urban rail rail_electric rail_fast ship" speed="12.67" length="36.81" width="3.50" shape="308.16,138.65 296.28,137.36 287.80,133.86 282.74,128.17 281.08,120.28">
            <param key="origId" value="227_1"/>
            <param key="signalID" value="1995 1996"/>
        </lane>
    </edge>
    <edge id=":103_3" function="internal">
        <lane id=":103_3_0" index="0" disallow="all" speed="1.39" length="31.54" width="2.50" shape="295.58,120.36 295.38,151.90">
            <param key="origId" value="183_6"/>
        </lane>
    </edge>
    <edge id=":103_4" function="internal">
        <lane id=":103_4_0" index="0" disallow="pedestrian tram rail_urban rail rail_electric rail_fast ship" speed="10.41" length="24.50" width="3.50" shape="292.58,120.34 293.53,126.74 296.45,131.34 301.35,134.14 308.22,135.15">
            <param key="origId" value="222_1"/>
        </lane>
    </edge>
    <edge id=":103_5" function="internal">
        <lane id=":103_5_0" index="0" disallow="pedestrian tram rail_urban rail rail_electric rail_fast ship" speed="13.89" length="31.53" width="3.50" shape="292.58,120.34 292.38,151.88">
            <param key="origId" value="183_5"/>
            <param key="signalID" value="1995"/>
        </lane>
        <lane id=":103_5_1" index="1" disallow="pedestrian tram rail_urban rail rail_electric rail_fast ship" speed="13.89" length="31.53" width="3.50" shape="289.08,120.32 288.88,151.85">
            <param key="origId" value="183_4"/>
            <param key="signalID" value="1995"/>
        </lane>
    </edge>
    <edge id=":103_7" function="internal">
        <lane id=":103_7_0" index="0" disallow="pedestrian tram rail_urban rail rail_electric rail_fast ship" speed="11.71" length="31.88" width="3.50" shape="289.08,120.32 287.72,128.47 283.76,134.22 277.17,137.58 267.98,138.54">
            <param key="origId" value="123_1"/>
            <param key="signalID" value="1994"/>
        </lane>
    </edge>
    <edge id=":103_8" function="internal">
        <lane id=":103_8_0" index="0" disallow="all" speed="1.39" length="31.53" width="0.50" shape="287.08,120.31 286.88,151.84">
            <param key="origId" value="183_3"/>
        </lane>
        <lane id=":103_8_1" index="1" disallow="all" speed="1.39" length="31.53" width="0.50" shape="283.08,120.29 282.88,151.82">
            <param key="origId" value="183_1"/>
        </lane>
    </edge>
    <edge id=":103_10" function="internal">
        <lane id=":103_10_0" index="0" disallow="pedestrian tram rail_urban rail rail_electric rail_fast ship" speed="9.33" length="19.82" width="3.50" shape="268.06,135.04 272.19,134.20 275.16,131.45 276.96,126.81 277.58,120.26">
            <param key="origId" value="130_-1"/>
            <param key="signalID" value="1996"/>
        </lane>
    </edge>
    <edge id=":103_11" function="internal">
        <lane id=":103_11_0" index="0" disallow="pedestrian tram rail_urban rail rail_electric rail_fast ship" speed="13.89" length="40.16" width="3.50" shape="268.06,135.04 308.22,135.15">
            <param key="origId" value="139_-1"/>
            <param key="signalID" value="1996"/>
        </lane>
    </edge>
    <edge id=":103_12" function="internal">
        <lane id=":103_12_0" index="0" disallow="pedestrian tram rail_urban rail rail_electric rail_fast ship" speed="11.56" length="30.27" width="3.50" shape="268.06,135.04 277.21,136.27 283.72,139.48 287.61,144.68 288.88,151.85">
            <param key="origId" value="110_-1"/>
            <param key="signalID" value="1996 1997"/>
        </lane>
    </edge>
    <edge id=":103_13" function="internal">
        <lane id=":103_13_0" index="0" disallow="all" speed="1.39" length="31.52" width="2.50" shape="274.38,151.76 274.58,120.25">
            <param key="origId" value="184_-3"/>
        </lane>
    </edge>
    <edge id=":103_14" function="internal">
        <lane id=":103_14_0" index="0" disallow="pedestrian tram rail_urban rail rail_electric rail_fast ship" speed="9.10" length="18.32" width="3.50" shape="277.38,151.78 276.82,146.07 275.07,141.96 272.12,139.45 267.98,138.54">
            <param key="origId" value="104_-1"/>
        </lane>
    </edge>
    <edge id=":103_15" function="internal">
        <lane id=":103_15_0" index="0" disallow="pedestrian tram rail_urban rail rail_electric rail_fast ship" speed="13.89" length="31.52" width="3.50" shape="277.38,151.78 277.58,120.26">
            <param key="origId" value="184_-2"/>
            <param key="signalID" value="1994"/>
        </lane>
        <lane id=":103_15_1" index="1" disallow="pedestrian tram rail_urban rail rail_electric rail_fast ship" speed="13.89" length="31.52" width="3.50" shape="280.88,151.80 281.08,120.28">
            <param key="origId" value="184_-1"/>
            <param key="signalID" value="1994"/>
        </lane>
    </edge>
    <edge id=":103_17" function="internal">
        <lane id=":103_17_0" index="0" disallow="pedestrian tram rail_urban rail rail_electric rail_fast ship" speed="12.46" length="36.01" width="3.50" shape="280.88,151.80 282.62,144.37 287.76,139.12 296.29,136.04 308.22,135.15">
            <param key="origId" value="213_-1"/>
            <param key="signalID" value="1994 1995"/>
        </lane>
    </edge>
    <edge id=":1038_0" function="internal">
        <lane id=":1038_0_0" index="0" allow="pedestrian" speed="2.78" length="34.69" width="2.00" shape="472.61,221.47 437.92,221.38">
            <param key="origId" value="1050_-6"/>
        </lane>
        <lane id=":1038_0_1" index="1" allow="pedestrian" speed="2.78" length="34.69" width="2.00" shape="472.61,219.47 437.92,219.38">
            <param key="origId" value="1050_-5"/>
        </lane>
        <lane id=":1038_0_2" index="2" allow="pedestrian" speed="2.78" length="34.69" width="2.00" shape="472.62,217.47 437.93,217.38">
            <param key="origId" value="1050_-4"/>
        </lane>
        <lane id=":1038_0_3" index="3" disallow="all" speed="1.39" length="34.69" width="0.63" shape="472.62,216.15 437.93,216.06">
            <param key="origId" value="1050_-3"/>
        </lane>
        <lane id=":1038_0_4" index="4" disallow="pedestrian tram rail_urban rail rail_electric rail_fast ship" speed="13.89" length="34.69" width="3.50" shape="472.64,210.59 437.94,210.50">
            <param key="origId" value="1050_-1"/>
        </lane>
    </edge>
    <edge id=":1038_5" function="internal">
        <lane id=":1038_5_0" index="0" disallow="pedestrian tram rail_urban rail rail_electric rail_fast ship" speed="11.59" length="5.75" width="3.50" shape="472.64,210.59 466.96,209.72,0.03">
            <param key="origId" value="1066_-1"/>
        </lane>
    </edge>
    <edge id=":1038_10" function="internal">
        <lane id=":1038_10_0" index="0" disallow="pedestrian tram rail_urban rail rail_electric rail_fast ship" speed="11.59" length="25.00" width="3.50" shape="466.96,209.72,0.03 464.55,209.34,0.04 458.77,205.65,0.07 455.31,199.51,0.11 454.15,190.93,0.15">
            <param key="origId" value="1066_-1"/>
        </lane>
    </edge>
    <edge id=":1038_6" function="internal">
        <lane id=":1038_6_0" index="0" disallow="pedestrian tram rail_urban rail rail_electric rail_fast ship" speed="10.51" length="25.12" width="3.50" shape="457.65,190.93,0.15 458.59,197.99,0.11 461.40,203.03,0.07 466.08,206.07,0.04 472.64,207.09">
            <param key="origId" value="1059_-1"/>
        </lane>
    </edge>
    <edge id=":1038_7" function="internal">
        <lane id=":1038_7_0" index="0" disallow="pedestrian tram rail_urban rail rail_electric rail_fast ship" speed="11.74" length="31.69" width="3.50" shape="457.65,190.93,0.15 456.42,199.50,0.11 452.72,205.62,0.08 446.56,209.29,0.04 437.94,210.50">
            <param key="origId" value="1070_-1"/>
        </lane>
    </edge>
    <edge id=":1038_8" function="internal">
        <lane id=":1038_8_0" index="0" disallow="pedestrian tram rail_urban rail rail_electric rail_fast ship" speed="10.68" length="26.04" width="3.50" shape="437.94,207.00 445.03,206.01,0.04 450.10,203.00,0.08 453.14,197.97,0.11 454.15,190.93,0.15">
            <param key="origId" value="1073_1"/>
        </lane>
    </edge>
    <edge id=":1038_9" function="internal">
        <lane id=":1038_9_0" index="0" disallow="pedestrian tram rail_urban rail rail_electric rail_fast ship" speed="13.89" length="34.70" width="3.50" shape="437.94,207.00 472.64,207.09">
            <param key="origId" value="1049_1"/>
        </lane>
    </edge>
    <edge id=":1082_0" function="internal">
        <lane id=":1082_0_0" index="0" disallow="all" speed="1.39" length="25.68" width="0.63" shape="316.54,281.67,-0.01 310.68,282.87,-0.01 305.97,286.09,-0.01 302.38,291.32,-0.00 299.94,298.57">
            <param key="origId" value="1105_5"/>
        </lane>
        <lane id=":1082_0_1" index="1" disallow="all" speed="1.39" length="27.42" width="1.89" shape="316.49,280.33,-0.01 310.20,281.61,-0.01 305.14,285.03,-0.01 301.31,290.59,-0.00 298.71,298.30">
            <param key="origId" value="1105_4"/>
        </lane>
    </edge>
    <edge id=":1082_2" function="internal">
        <lane id=":1082_2_0" index="0" disallow="all" speed="1.39" length="33.12" width="0.50" shape="316.49,280.33,-0.01 307.44,282.70,-0.01 302.02,287.48,-0.00 296.59,292.21,-0.00 287.54,294.48">
            <param key="origId" value="1089_5"/>
        </lane>
    </edge>
    <edge id=":1082_3" function="internal">
        <lane id=":1082_3_0" index="0" disallow="pedestrian tram rail_urban rail rail_electric rail_fast ship" speed="12.90" length="19.82" width="3.50" shape="316.41,277.56,-0.01 309.17,279.00,-0.01 303.37,282.83,-0.01 300.22,287.33,-0.00">
            <param key="origId" value="1105_3"/>
        </lane>
    </edge>
    <edge id=":1082_4" function="internal">
        <lane id=":1082_4_0" index="0" disallow="pedestrian tram rail_urban rail rail_electric rail_fast ship" speed="13.89" length="33.52" width="3.50" shape="316.41,277.56,-0.01 307.32,280.05,-0.01 301.96,285.09,-0.00 296.59,290.09,-0.00 287.50,292.48">
            <param key="origId" value="1089_4"/>
        </lane>
    </edge>
    <edge id=":1082_5" function="internal">
        <lane id=":1082_5_0" index="0" disallow="pedestrian tram rail_urban rail rail_electric rail_fast ship" speed="13.80" length="24.31" width="3.50" shape="316.31,274.06,-0.01 307.83,275.70,-0.01 301.06,280.06,-0.01 296.63,286.26,-0.00">
            <param key="origId" value="1105_2"/>
        </lane>
    </edge>
    <edge id=":1082_6" function="internal">
        <lane id=":1082_6_0" index="0" disallow="pedestrian tram rail_urban rail rail_electric rail_fast ship" speed="13.89" length="33.48" width="3.50" shape="316.31,274.06,-0.01 307.23,276.55,-0.01 301.87,281.59,-0.00 296.51,286.59,-0.00 287.43,288.98">
            <param key="origId" value="1089_3"/>
        </lane>
        <lane id=":1082_6_1" index="1" disallow="all" speed="1.39" length="33.48" width="0.50" shape="316.25,272.06,-0.01 307.17,274.55,-0.01 301.82,279.58,-0.00 296.47,284.58,-0.00 287.39,286.98">
            <param key="origId" value="1089_2"/>
        </lane>
    </edge>
    <edge id=":1082_17" function="internal">
        <lane id=":1082_17_0" index="0" disallow="pedestrian tram rail_urban rail rail_electric rail_fast ship" speed="12.90" length="11.25" width="3.50" shape="300.22,287.33,-0.00 299.00,289.07,-0.00 296.08,297.71">
            <param key="origId" value="1105_3"/>
        </lane>
    </edge>
    <edge id=":1082_18" function="internal">
        <lane id=":1082_18_0" index="0" disallow="pedestrian tram rail_urban rail rail_electric rail_fast ship" speed="13.80" length="11.44" width="3.50" shape="296.63,286.26,-0.00 296.00,287.15,-0.00 292.66,296.95">
            <param key="origId" value="1105_2"/>
        </lane>
    </edge>
    <edge id=":1082_8" function="internal">
        <lane id=":1082_8_0" index="0" disallow="all" speed="1.39" length="32.00" width="1.89" shape="311.91,269.77 310.18,278.70 306.48,284.17 302.18,289.58 298.71,298.30">
            <param key="origId" value="1122_-4"/>
        </lane>
    </edge>
    <edge id=":1082_9" function="internal">
        <lane id=":1082_9_0" index="0" disallow="all" speed="1.39" length="3.31" width="0.50" shape="311.91,269.77 311.38,273.03">
            <param key="origId" value="1100_-6"/>
        </lane>
    </edge>
    <edge id=":1082_10" function="internal">
        <lane id=":1082_10_0" index="0" disallow="pedestrian tram rail_urban rail rail_electric rail_fast ship" speed="13.89" length="31.85" width="3.50" shape="309.91,269.72 308.08,278.54 304.14,283.86 299.63,289.11 296.08,297.71">
            <param key="origId" value="1122_-3"/>
        </lane>
    </edge>
    <edge id=":1082_11" function="internal">
        <lane id=":1082_11_0" index="0" disallow="pedestrian tram rail_urban rail rail_electric rail_fast ship" speed="12.70" length="3.64" width="3.50" shape="309.91,269.72 309.33,273.31">
            <param key="origId" value="1100_-5"/>
        </lane>
    </edge>
    <edge id=":1082_12" function="internal">
        <lane id=":1082_12_0" index="0" disallow="pedestrian tram rail_urban rail rail_electric rail_fast ship" speed="13.89" length="31.22" width="3.50" shape="306.41,269.64 304.58,278.26 300.65,283.43 296.16,288.54 292.66,296.95">
            <param key="origId" value="1122_-2"/>
        </lane>
    </edge>
    <edge id=":1082_13" function="internal">
        <lane id=":1082_13_0" index="0" disallow="pedestrian tram rail_urban rail rail_electric rail_fast ship" speed="11.73" length="5.14" width="3.50" shape="306.41,269.64 305.59,274.72">
            <param key="origId" value="1100_-4"/>
        </lane>
        <lane id=":1082_13_1" index="1" disallow="all" speed="1.39" length="9.08" width="0.50" shape="304.41,269.60 303.20,277.08 302.43,278.36">
            <param key="origId" value="1100_-3"/>
        </lane>
        <lane id=":1082_13_2" index="2" disallow="all" speed="1.39" length="10.62" width="0.63" shape="303.84,269.58 302.68,276.83 300.98,279.64">
            <param key="origId" value="1100_-2"/>
        </lane>
        <lane id=":1082_13_3" index="3" allow="pedestrian" speed="2.78" length="12.82" width="2.00" shape="302.53,269.55 301.45,276.24 298.56,281.07 298.20,281.29">
            <param key="origId" value="1100_-1"/>
        </lane>
    </edge>
    <edge id=":1082_19" function="internal">
        <lane id=":1082_19_0" index="0" disallow="all" speed="1.39" length="35.92" width="0.50" shape="311.38,273.03 310.18,280.41 305.54,288.08 298.00,292.77 287.54,294.48">
            <param key="origId" value="1100_-6"/>
        </lane>
    </edge>
    <edge id=":1082_20" function="internal">
        <lane id=":1082_20_0" index="0" disallow="pedestrian tram rail_urban rail rail_electric rail_fast ship" speed="12.70" length="32.46" width="3.50" shape="309.33,273.31 308.32,279.52 304.06,286.59 297.11,290.90 287.50,292.48">
            <param key="origId" value="1100_-5"/>
        </lane>
    </edge>
    <edge id=":1082_21" function="internal">
        <lane id=":1082_21_0" index="0" disallow="pedestrian tram rail_urban rail rail_electric rail_fast ship" speed="11.73" length="25.48" width="3.50" shape="305.59,274.72 305.06,277.97 301.45,283.97 295.57,287.64 287.43,288.98">
            <param key="origId" value="1100_-4"/>
        </lane>
        <lane id=":1082_21_1" index="0" disallow="all" speed="1.39" length="18.41" width="0.50" shape="302.43,278.36 299.96,282.47 294.69,285.77 287.39,286.98">
            <param key="origId" value="1100_-3"/>
        </lane>
        <lane id=":1082_21_2" index="0" disallow="all" speed="1.39" length="15.98" width="0.63" shape="300.98,279.64 299.54,282.05 294.44,285.24 287.38,286.41">
            <param key="origId" value="1100_-2"/>
        </lane>
        <lane id=":1082_21_3" index="0" allow="pedestrian" speed="2.78" length="11.73" width="2.00" shape="298.20,281.29 293.86,284.02 287.35,285.10">
            <param key="origId" value="1100_-1"/>
        </lane>
    </edge>
    <edge id=":1135_0" function="internal">
        <lane id=":1135_0_0" index="0" disallow="all" speed="1.39" length="38.50" width="2.50" shape="516.01,286.69 515.07,248.20">
            <param key="origId" value="1165_-3"/>
        </lane>
    </edge>
    <edge id=":1135_1" function="internal">
        <lane id=":1135_1_0" index="0" disallow="pedestrian tram rail_urban rail rail_electric rail_fast ship" speed="9.11" length="18.43" width="3.50" shape="519.01,286.62 518.22,281.32 516.13,277.55 512.75,275.32 508.09,274.62">
            <param key="origId" value="1158_-1"/>
        </lane>
    </edge>
    <edge id=":1135_2" function="internal">
        <lane id=":1135_2_0" index="0" disallow="pedestrian tram rail_urban rail rail_electric rail_fast ship" speed="13.89" length="38.50" width="3.50" shape="519.01,286.62 518.07,248.13">
            <param key="origId" value="1165_-2"/>
        </lane>
    </edge>
    <edge id=":1135_3" function="internal">
        <lane id=":1135_3_0" index="0" disallow="pedestrian tram rail_urban rail rail_electric rail_fast ship" speed="10.33" length="24.03" width="3.50" shape="522.51,286.53 521.46,279.72 518.70,274.88 514.23,272.02 508.04,271.12">
            <param key="origId" value="1156_-1"/>
        </lane>
    </edge>
    <edge id=":1135_4" function="internal">
        <lane id=":1135_4_0" index="0" disallow="pedestrian tram rail_urban rail rail_electric rail_fast ship" speed="13.89" length="38.50" width="3.50" shape="522.51,286.53 521.57,248.04">
            <param key="origId" value="1165_-1"/>
        </lane>
    </edge>
    <edge id=":1135_5" function="internal">
        <lane id=":1135_5_0" index="0" allow="pedestrian" speed="2.78" length="38.50" width="2.00" shape="537.95,247.65 538.89,286.13">
            <param key="origId" value="1166_6"/>
        </lane>
        <lane id=":1135_5_1" index="1" disallow="all" speed="1.39" length="38.50" width="0.63" shape="536.63,247.68 537.57,286.17">
            <param key="origId" value="1166_5"/>
        </lane>
        <lane id=":1135_5_2" index="2" disallow="all" speed="1.39" length="38.50" width="2.50" shape="535.07,247.72 536.01,286.20">
            <param key="origId" value="1166_4"/>
        </lane>
        <lane id=":1135_5_3" index="3" disallow="pedestrian tram rail_urban rail rail_electric rail_fast ship" speed="13.89" length="38.50" width="3.50" shape="532.07,247.79 533.01,286.28">
            <param key="origId" value="1166_3"/>
        </lane>
        <lane id=":1135_5_4" index="4" disallow="pedestrian tram rail_urban rail rail_electric rail_fast ship" speed="13.89" length="38.50" width="3.50" shape="528.57,247.87 529.51,286.36">
            <param key="origId" value="1166_2"/>
        </lane>
    </edge>
    <edge id=":1135_10" function="internal">
        <lane id=":1135_10_0" index="0" disallow="pedestrian tram rail_urban rail rail_electric rail_fast ship" speed="8.82" length="17.54" width="3.50" shape="507.90,259.62 512.45,258.85 515.67,256.68 517.54,253.11 518.07,248.13">
            <param key="origId" value="1142_1"/>
        </lane>
        <lane id=":1135_10_1" index="1" disallow="pedestrian tram rail_urban rail rail_electric rail_fast ship" speed="10.08" length="23.23" width="3.50" shape="507.94,263.12 514.04,262.11 518.34,259.26 520.85,254.57 521.57,248.04">
            <param key="origId" value="1146_1"/>
        </lane>
    </edge>
    <edge id=":1168_0" function="internal">
        <lane id=":1168_0_0" index="0" disallow="pedestrian tram rail_urban rail rail_electric rail_fast ship" speed="9.13" length="18.60" width="3.50" shape="435.44,285.99,0.20 434.56,281.51,0.17 432.11,278.33,0.14 428.10,276.46,0.10 422.54,275.90,0.06">
            <param key="origId" value="1188_-1"/>
        </lane>
    </edge>
    <edge id=":1168_1" function="internal">
        <lane id=":1168_1_0" index="0" disallow="pedestrian tram rail_urban rail rail_electric rail_fast ship" speed="1.39" length="28.99" width="3.50" shape="451.57,278.96 422.59,279.40,0.06">
            <param key="origId" value="1174_-3"/>
        </lane>
    </edge>
    <edge id=":1168_2" function="internal">
        <lane id=":1168_2_0" index="0" disallow="pedestrian tram rail_urban rail rail_electric rail_fast ship" speed="9.09" length="6.02" width="3.50" shape="451.52,275.46 445.94,276.18,0.06 445.59,276.36,0.06">
            <param key="origId" value="1181_-1"/>
        </lane>
    </edge>
    <edge id=":1168_3" function="internal">
        <lane id=":1168_3_0" index="0" disallow="pedestrian tram rail_urban rail rail_electric rail_fast ship" speed="13.89" length="28.99" width="3.50" shape="451.52,275.46 422.54,275.90,0.06">
            <param key="origId" value="1174_-2"/>
        </lane>
        <lane id=":1168_3_1" index="1" disallow="pedestrian tram rail_urban rail rail_electric rail_fast ship" speed="13.89" length="28.99" width="3.50" shape="451.47,271.96 422.49,272.40,0.06">
            <param key="origId" value="1174_-1"/>
        </lane>
    </edge>
    <edge id=":1168_13" function="internal">
        <lane id=":1168_13_0" index="0" disallow="pedestrian tram rail_urban rail rail_electric rail_fast ship" speed="9.09" length="12.60" width="3.50" shape="445.59,276.36,0.06 441.98,278.17,0.11 439.65,281.41,0.15 438.94,285.92,0.20">
            <param key="origId" value="1181_-1"/>
        </lane>
    </edge>
    <edge id=":1168_5" function="internal">
        <lane id=":1168_5_0" index="0" allow="pedestrian" speed="2.78" length="29.00" width="2.00" shape="422.23,255.02,0.06 451.23,254.58">
            <param key="origId" value="1173_8"/>
        </lane>
        <lane id=":1168_5_1" index="1" disallow="all" speed="1.39" length="29.00" width="0.63" shape="422.25,256.34,0.06 451.25,255.90">
            <param key="origId" value="1173_7"/>
        </lane>
        <lane id=":1168_5_2" index="2" disallow="all" speed="1.39" length="29.00" width="2.50" shape="422.27,257.90,0.06 451.27,257.46">
            <param key="origId" value="1173_6"/>
        </lane>
        <lane id=":1168_5_3" index="3" disallow="pedestrian tram rail_urban rail rail_electric rail_fast ship" speed="13.89" length="29.00" width="3.50" shape="422.32,260.90,0.06 451.31,260.46">
            <param key="origId" value="1173_5"/>
        </lane>
        <lane id=":1168_5_4" index="4" disallow="pedestrian tram rail_urban rail rail_electric rail_fast ship" speed="13.89" length="29.00" width="3.50" shape="422.37,264.40,0.06 451.36,263.96">
            <param key="origId" value="1173_4"/>
        </lane>
        <lane id=":1168_5_5" index="5" disallow="all" speed="1.39" length="29.00" width="0.50" shape="422.40,266.40,0.06 451.39,265.96">
            <param key="origId" value="1173_3"/>
        </lane>
        <lane id=":1168_5_6" index="6" disallow="all" speed="1.39" length="29.00" width="3.50" shape="422.43,268.40,0.06 451.42,267.96">
            <param key="origId" value="1173_2"/>
        </lane>
        <lane id=":1168_5_7" index="7" disallow="all" speed="1.39" length="29.00" width="0.50" shape="422.46,270.40,0.06 451.45,269.96">
            <param key="origId" value="1173_1"/>
        </lane>
    </edge>
    <edge id=":1191_0" function="internal">
        <lane id=":1191_0_0" index="0" allow="pedestrian" speed="2.78" length="14.79" width="2.00" shape="333.63,284.11,0.01 329.26,283.94,0.00 326.27,283.47,-0.01 323.29,283.02,-0.01 318.92,282.91,-0.02">
            <param key="origId" value="1197_-7"/>
        </lane>
        <lane id=":1191_0_1" index="1" disallow="all" speed="1.39" length="14.79" width="0.63" shape="333.61,282.79,0.01 329.23,282.62,0.00 326.25,282.16,-0.01 323.26,281.71,-0.01 318.88,281.60,-0.02">
            <param key="origId" value="1197_-6"/>
        </lane>